<additional>
  <laneAreaDetector file="ild.out" freq="1" id="np8_nt7_0" lane="np8_nt7_0" pos="-50" endPos="-1"/>
  <laneAreaDetector file="ild.out" freq="1" id="nt7_np8_0" lane="nt7_np8_0" pos="-50" endPos="-1"/>
  <laneAreaDetector file="ild.out" freq="1" id="np8_nt7_1" lane="np8_nt7_1" pos="-50" endPos="-1"/>
  <laneAreaDetector file="ild.out" freq="1" id="nt7_np8_1" lane="nt7_np8_1" pos="-50" endPos="-1"/>
  <laneAreaDetector file="ild.out" freq="1" id="np9_nt14_0" lane="np9_nt14_0" pos="-50" endPos="-1"/>
  <laneAreaDetector file="ild.out" freq="1" id="nt14_np9_0" lane="nt14_np9_0" pos="-50" endPos="-1"/>
  <laneAreaDetector file="ild.out" freq="1" id="np9_nt14_1" lane="np9_nt14_1" pos="-50" endPos="-1"/>
  <laneAreaDetector file="ild.out" freq="1" id="nt14_np9_1" lane="nt14_np9_1" pos="-50" endPos="-1"/>
  <laneAreaDetector file="ild.out" freq="1" id="np10_nt21_0" lane="np10_nt21_0" pos="-50" endPos="-1"/>
  <laneAreaDetector file="ild.out" freq="1" id="nt21_np10_0" lane="nt21_np10_0" pos="-50" endPos="-1"/>
  <laneAreaDetector file="ild.out" freq="1" id="np10_nt21_1" lane="np10_nt21_1" pos="-50" endPos="-1"/>
  <laneAreaDetector file="ild.out" freq="1" id="nt21_np10_1" lane="nt21_np10_1" pos="-50" endPos="-1"/>
  <laneAreaDetector file="ild.out" freq="1" id="np11_nt28_0" lane="np11_nt28_0" pos="-50" endPos="-1"/>
  <laneAreaDetector file="ild.out" freq="1" id="nt28_np11_0" lane="nt28_np11_0" pos="-50" endPos="-1"/>
  <laneAreaDetector file="ild.out" freq="1" id="np11_nt28_1" lane="np11_nt28_1" pos="-50" endPos="-1"/>
  <laneAreaDetector file="ild.out" freq="1" id="nt28_np11_1" lane="nt28_np11_1" pos="-50" endPos="-1"/>
  <laneAreaDetector file="ild.out" freq="1" id="np12_nt35_0" lane="np12_nt35_0" pos="-50" endPos="-1"/>
  <laneAreaDetector file="ild.out" freq="1" id="nt35_np12_0" lane="nt35_np12_0" pos="-50" endPos="-1"/>
  <laneAreaDetector file="ild.out" freq="1" id="np12_nt35_1" lane="np12_nt35_1" pos="-50" endPos="-1"/>
  <laneAreaDetector file="ild.out" freq="1" id="nt35_np12_1" lane="nt35_np12_1" pos="-50" endPos="-1"/>
  <laneAreaDetector file="ild.out" freq="1" id="np13_nt42_0" lane="np13_nt42_0" pos="-50" endPos="-1"/>
  <laneAreaDetector file="ild.out" freq="1" id="nt42_np13_0" lane="nt42_np13_0" pos="-50" endPos="-1"/>
  <laneAreaDetector file="ild.out" freq="1" id="np13_nt42_1" lane="np13_nt42_1" pos="-50" endPos="-1"/>
  <laneAreaDetector file="ild.out" freq="1" id="nt42_np13_1" lane="nt42_np13_1" pos="-50" endPos="-1"/>
  <laneAreaDetector file="ild.out" freq="1" id="np14_nt49_0" lane="np14_nt49_0" pos="-50" endPos="-1"/>
  <laneAreaDetector file="ild.out" freq="1" id="nt49_np14_0" lane="nt49_np14_0" pos="-50" endPos="-1"/>
  <laneAreaDetector file="ild.out" freq="1" id="np14_nt49_1" lane="np14_nt49_1" pos="-50" endPos="-1"/>
  <laneAreaDetector file="ild.out" freq="1" id="nt49_np14_1" lane="nt49_np14_1" pos="-50" endPos="-1"/>
  <laneAreaDetector file="ild.out" freq="1" id="np22_nt43_0" lane="np22_nt43_0" pos="-50" endPos="-1"/>
  <laneAreaDetector file="ild.out" freq="1" id="nt43_np22_0" lane="nt43_np22_0" pos="-50" endPos="-1"/>
  <laneAreaDetector file="ild.out" freq="1" id="np22_nt43_1" lane="np22_nt43_1" pos="-50" endPos="-1"/>
  <laneAreaDetector file="ild.out" freq="1" id="nt43_np22_1" lane="nt43_np22_1" pos="-50" endPos="-1"/>
  <laneAreaDetector file="ild.out" freq="1" id="np23_nt36_0" lane="np23_nt36_0" pos="-50" endPos="-1"/>
  <laneAreaDetector file="ild.out" freq="1" id="nt36_np23_0" lane="nt36_np23_0" pos="-50" endPos="-1"/>
  <laneAreaDetector file="ild.out" freq="1" id="np23_nt36_1" lane="np23_nt36_1" pos="-50" endPos="-1"/>
  <laneAreaDetector file="ild.out" freq="1" id="nt36_np23_1" lane="nt36_np23_1" pos="-50" endPos="-1"/>
  <laneAreaDetector file="ild.out" freq="1" id="np24_nt29_0" lane="np24_nt29_0" pos="-50" endPos="-1"/>
  <laneAreaDetector file="ild.out" freq="1" id="nt29_np24_0" lane="nt29_np24_0" pos="-50" endPos="-1"/>
  <laneAreaDetector file="ild.out" freq="1" id="np24_nt29_1" lane="np24_nt29_1" pos="-50" endPos="-1"/>
  <laneAreaDetector file="ild.out" freq="1" id="nt29_np24_1" lane="nt29_np24_1" pos="-50" endPos="-1"/>
  <laneAreaDetector file="ild.out" freq="1" id="np25_nt22_0" lane="np25_nt22_0" pos="-50" endPos="-1"/>
  <laneAreaDetector file="ild.out" freq="1" id="nt22_np25_0" lane="nt22_np25_0" pos="-50" endPos="-1"/>
  <laneAreaDetector file="ild.out" freq="1" id="np25_nt22_1" lane="np25_nt22_1" pos="-50" endPos="-1"/>
  <laneAreaDetector file="ild.out" freq="1" id="nt22_np25_1" lane="nt22_np25_1" pos="-50" endPos="-1"/>
  <laneAreaDetector file="ild.out" freq="1" id="np26_nt15_0" lane="np26_nt15_0" pos="-50" endPos="-1"/>
  <laneAreaDetector file="ild.out" freq="1" id="nt15_np26_0" lane="nt15_np26_0" pos="-50" endPos="-1"/>
  <laneAreaDetector file="ild.out" freq="1" id="np26_nt15_1" lane="np26_nt15_1" pos="-50" endPos="-1"/>
  <laneAreaDetector file="ild.out" freq="1" id="nt15_np26_1" lane="nt15_np26_1" pos="-50" endPos="-1"/>
  <laneAreaDetector file="ild.out" freq="1" id="np27_nt8_0" lane="np27_nt8_0" pos="-50" endPos="-1"/>
  <laneAreaDetector file="ild.out" freq="1" id="nt8_np27_0" lane="nt8_np27_0" pos="-50" endPos="-1"/>
  <laneAreaDetector file="ild.out" freq="1" id="np27_nt8_1" lane="np27_nt8_1" pos="-50" endPos="-1"/>
  <laneAreaDetector file="ild.out" freq="1" id="nt8_np27_1" lane="nt8_np27_1" pos="-50" endPos="-1"/>
  <laneAreaDetector file="ild.out" freq="1" id="np28_nt1_0" lane="np28_nt1_0" pos="-50" endPos="-1"/>
  <laneAreaDetector file="ild.out" freq="1" id="nt1_np28_0" lane="nt1_np28_0" pos="-50" endPos="-1"/>
  <laneAreaDetector file="ild.out" freq="1" id="np28_nt1_1" lane="np28_nt1_1" pos="-50" endPos="-1"/>
  <laneAreaDetector file="ild.out" freq="1" id="nt1_np28_1" lane="nt1_np28_1" pos="-50" endPos="-1"/>
  <laneAreaDetector file="ild.out" freq="1" id="np1_nt1_0" lane="np1_nt1_0" pos="-50" endPos="-1"/>
  <laneAreaDetector file="ild.out" freq="1" id="nt1_np1_0" lane="nt1_np1_0" pos="-50" endPos="-1"/>
  <laneAreaDetector file="ild.out" freq="1" id="np2_nt2_0" lane="np2_nt2_0" pos="-50" endPos="-1"/>
  <laneAreaDetector file="ild.out" freq="1" id="nt2_np2_0" lane="nt2_np2_0" pos="-50" endPos="-1"/>
  <laneAreaDetector file="ild.out" freq="1" id="np3_nt3_0" lane="np3_nt3_0" pos="-50" endPos="-1"/>
  <laneAreaDetector file="ild.out" freq="1" id="nt3_np3_0" lane="nt3_np3_0" pos="-50" endPos="-1"/>
  <laneAreaDetector file="ild.out" freq="1" id="np4_nt4_0" lane="np4_nt4_0" pos="-50" endPos="-1"/>
  <laneAreaDetector file="ild.out" freq="1" id="nt4_np4_0" lane="nt4_np4_0" pos="-50" endPos="-1"/>
  <laneAreaDetector file="ild.out" freq="1" id="np5_nt5_0" lane="np5_nt5_0" pos="-50" endPos="-1"/>
  <laneAreaDetector file="ild.out" freq="1" id="nt5_np5_0" lane="nt5_np5_0" pos="-50" endPos="-1"/>
  <laneAreaDetector file="ild.out" freq="1" id="np6_nt6_0" lane="np6_nt6_0" pos="-50" endPos="-1"/>
  <laneAreaDetector file="ild.out" freq="1" id="nt6_np6_0" lane="nt6_np6_0" pos="-50" endPos="-1"/>
  <laneAreaDetector file="ild.out" freq="1" id="np7_nt7_0" lane="np7_nt7_0" pos="-50" endPos="-1"/>
  <laneAreaDetector file="ild.out" freq="1" id="nt7_np7_0" lane="nt7_np7_0" pos="-50" endPos="-1"/>
  <laneAreaDetector file="ild.out" freq="1" id="np15_nt49_0" lane="np15_nt49_0" pos="-50" endPos="-1"/>
  <laneAreaDetector file="ild.out" freq="1" id="nt49_np15_0" lane="nt49_np15_0" pos="-50" endPos="-1"/>
  <laneAreaDetector file="ild.out" freq="1" id="np16_nt48_0" lane="np16_nt48_0" pos="-50" endPos="-1"/>
  <laneAreaDetector file="ild.out" freq="1" id="nt48_np16_0" lane="nt48_np16_0" pos="-50" endPos="-1"/>
  <laneAreaDetector file="ild.out" freq="1" id="np17_nt47_0" lane="np17_nt47_0" pos="-50" endPos="-1"/>
  <laneAreaDetector file="ild.out" freq="1" id="nt47_np17_0" lane="nt47_np17_0" pos="-50" endPos="-1"/>
  <laneAreaDetector file="ild.out" freq="1" id="np18_nt46_0" lane="np18_nt46_0" pos="-50" endPos="-1"/>
  <laneAreaDetector file="ild.out" freq="1" id="nt46_np18_0" lane="nt46_np18_0" pos="-50" endPos="-1"/>
  <laneAreaDetector file="ild.out" freq="1" id="np19_nt45_0" lane="np19_nt45_0" pos="-50" endPos="-1"/>
  <laneAreaDetector file="ild.out" freq="1" id="nt45_np19_0" lane="nt45_np19_0" pos="-50" endPos="-1"/>
  <laneAreaDetector file="ild.out" freq="1" id="np20_nt44_0" lane="np20_nt44_0" pos="-50" endPos="-1"/>
  <laneAreaDetector file="ild.out" freq="1" id="nt44_np20_0" lane="nt44_np20_0" pos="-50" endPos="-1"/>
  <laneAreaDetector file="ild.out" freq="1" id="np21_nt43_0" lane="np21_nt43_0" pos="-50" endPos="-1"/>
  <laneAreaDetector file="ild.out" freq="1" id="nt43_np21_0" lane="nt43_np21_0" pos="-50" endPos="-1"/>
  <laneAreaDetector file="ild.out" freq="1" id="nt1_nt2_0" lane="nt1_nt2_0" pos="-50" endPos="-1"/>
  <laneAreaDetector file="ild.out" freq="1" id="nt2_nt1_0" lane="nt2_nt1_0" pos="-50" endPos="-1"/>
  <laneAreaDetector file="ild.out" freq="1" id="nt1_nt2_1" lane="nt1_nt2_1" pos="-50" endPos="-1"/>
  <laneAreaDetector file="ild.out" freq="1" id="nt2_nt1_1" lane="nt2_nt1_1" pos="-50" endPos="-1"/>
  <laneAreaDetector file="ild.out" freq="1" id="nt2_nt3_0" lane="nt2_nt3_0" pos="-50" endPos="-1"/>
  <laneAreaDetector file="ild.out" freq="1" id="nt3_nt2_0" lane="nt3_nt2_0" pos="-50" endPos="-1"/>
  <laneAreaDetector file="ild.out" freq="1" id="nt2_nt3_1" lane="nt2_nt3_1" pos="-50" endPos="-1"/>
  <laneAreaDetector file="ild.out" freq="1" id="nt3_nt2_1" lane="nt3_nt2_1" pos="-50" endPos="-1"/>
  <laneAreaDetector file="ild.out" freq="1" id="nt3_nt4_0" lane="nt3_nt4_0" pos="-50" endPos="-1"/>
  <laneAreaDetector file="ild.out" freq="1" id="nt4_nt3_0" lane="nt4_nt3_0" pos="-50" endPos="-1"/>
  <laneAreaDetector file="ild.out" freq="1" id="nt3_nt4_1" lane="nt3_nt4_1" pos="-50" endPos="-1"/>
  <laneAreaDetector file="ild.out" freq="1" id="nt4_nt3_1" lane="nt4_nt3_1" pos="-50" endPos="-1"/>
  <laneAreaDetector file="ild.out" freq="1" id="nt4_nt5_0" lane="nt4_nt5_0" pos="-50" endPos="-1"/>
  <laneAreaDetector file="ild.out" freq="1" id="nt5_nt4_0" lane="nt5_nt4_0" pos="-50" endPos="-1"/>
  <laneAreaDetector file="ild.out" freq="1" id="nt4_nt5_1" lane="nt4_nt5_1" pos="-50" endPos="-1"/>
  <laneAreaDetector file="ild.out" freq="1" id="nt5_nt4_1" lane="nt5_nt4_1" pos="-50" endPos="-1"/>
  <laneAreaDetector file="ild.out" freq="1" id="nt5_nt6_0" lane="nt5_nt6_0" pos="-50" endPos="-1"/>
  <laneAreaDetector file="ild.out" freq="1" id="nt6_nt5_0" lane="nt6_nt5_0" pos="-50" endPos="-1"/>
  <laneAreaDetector file="ild.out" freq="1" id="nt5_nt6_1" lane="nt5_nt6_1" pos="-50" endPos="-1"/>
  <laneAreaDetector file="ild.out" freq="1" id="nt6_nt5_1" lane="nt6_nt5_1" pos="-50" endPos="-1"/>
  <laneAreaDetector file="ild.out" freq="1" id="nt6_nt7_0" lane="nt6_nt7_0" pos="-50" endPos="-1"/>
  <laneAreaDetector file="ild.out" freq="1" id="nt7_nt6_0" lane="nt7_nt6_0" pos="-50" endPos="-1"/>
  <laneAreaDetector file="ild.out" freq="1" id="nt6_nt7_1" lane="nt6_nt7_1" pos="-50" endPos="-1"/>
  <laneAreaDetector file="ild.out" freq="1" id="nt7_nt6_1" lane="nt7_nt6_1" pos="-50" endPos="-1"/>
  <laneAreaDetector file="ild.out" freq="1" id="nt8_nt9_0" lane="nt8_nt9_0" pos="-50" endPos="-1"/>
  <laneAreaDetector file="ild.out" freq="1" id="nt9_nt8_0" lane="nt9_nt8_0" pos="-50" endPos="-1"/>
  <laneAreaDetector file="ild.out" freq="1" id="nt8_nt9_1" lane="nt8_nt9_1" pos="-50" endPos="-1"/>
  <laneAreaDetector file="ild.out" freq="1" id="nt9_nt8_1" lane="nt9_nt8_1" pos="-50" endPos="-1"/>
  <laneAreaDetector file="ild.out" freq="1" id="nt9_nt10_0" lane="nt9_nt10_0" pos="-50" endPos="-1"/>
  <laneAreaDetector file="ild.out" freq="1" id="nt10_nt9_0" lane="nt10_nt9_0" pos="-50" endPos="-1"/>
  <laneAreaDetector file="ild.out" freq="1" id="nt9_nt10_1" lane="nt9_nt10_1" pos="-50" endPos="-1"/>
  <laneAreaDetector file="ild.out" freq="1" id="nt10_nt9_1" lane="nt10_nt9_1" pos="-50" endPos="-1"/>
  <laneAreaDetector file="ild.out" freq="1" id="nt10_nt11_0" lane="nt10_nt11_0" pos="-50" endPos="-1"/>
  <laneAreaDetector file="ild.out" freq="1" id="nt11_nt10_0" lane="nt11_nt10_0" pos="-50" endPos="-1"/>
  <laneAreaDetector file="ild.out" freq="1" id="nt10_nt11_1" lane="nt10_nt11_1" pos="-50" endPos="-1"/>
  <laneAreaDetector file="ild.out" freq="1" id="nt11_nt10_1" lane="nt11_nt10_1" pos="-50" endPos="-1"/>
  <laneAreaDetector file="ild.out" freq="1" id="nt11_nt12_0" lane="nt11_nt12_0" pos="-50" endPos="-1"/>
  <laneAreaDetector file="ild.out" freq="1" id="nt12_nt11_0" lane="nt12_nt11_0" pos="-50" endPos="-1"/>
  <laneAreaDetector file="ild.out" freq="1" id="nt11_nt12_1" lane="nt11_nt12_1" pos="-50" endPos="-1"/>
  <laneAreaDetector file="ild.out" freq="1" id="nt12_nt11_1" lane="nt12_nt11_1" pos="-50" endPos="-1"/>
  <laneAreaDetector file="ild.out" freq="1" id="nt12_nt13_0" lane="nt12_nt13_0" pos="-50" endPos="-1"/>
  <laneAreaDetector file="ild.out" freq="1" id="nt13_nt12_0" lane="nt13_nt12_0" pos="-50" endPos="-1"/>
  <laneAreaDetector file="ild.out" freq="1" id="nt12_nt13_1" lane="nt12_nt13_1" pos="-50" endPos="-1"/>
  <laneAreaDetector file="ild.out" freq="1" id="nt13_nt12_1" lane="nt13_nt12_1" pos="-50" endPos="-1"/>
  <laneAreaDetector file="ild.out" freq="1" id="nt13_nt14_0" lane="nt13_nt14_0" pos="-50" endPos="-1"/>
  <laneAreaDetector file="ild.out" freq="1" id="nt14_nt13_0" lane="nt14_nt13_0" pos="-50" endPos="-1"/>
  <laneAreaDetector file="ild.out" freq="1" id="nt13_nt14_1" lane="nt13_nt14_1" pos="-50" endPos="-1"/>
  <laneAreaDetector file="ild.out" freq="1" id="nt14_nt13_1" lane="nt14_nt13_1" pos="-50" endPos="-1"/>
  <laneAreaDetector file="ild.out" freq="1" id="nt15_nt16_0" lane="nt15_nt16_0" pos="-50" endPos="-1"/>
  <laneAreaDetector file="ild.out" freq="1" id="nt16_nt15_0" lane="nt16_nt15_0" pos="-50" endPos="-1"/>
  <laneAreaDetector file="ild.out" freq="1" id="nt15_nt16_1" lane="nt15_nt16_1" pos="-50" endPos="-1"/>
  <laneAreaDetector file="ild.out" freq="1" id="nt16_nt15_1" lane="nt16_nt15_1" pos="-50" endPos="-1"/>
  <laneAreaDetector file="ild.out" freq="1" id="nt16_nt17_0" lane="nt16_nt17_0" pos="-50" endPos="-1"/>
  <laneAreaDetector file="ild.out" freq="1" id="nt17_nt16_0" lane="nt17_nt16_0" pos="-50" endPos="-1"/>
  <laneAreaDetector file="ild.out" freq="1" id="nt16_nt17_1" lane="nt16_nt17_1" pos="-50" endPos="-1"/>
  <laneAreaDetector file="ild.out" freq="1" id="nt17_nt16_1" lane="nt17_nt16_1" pos="-50" endPos="-1"/>
  <laneAreaDetector file="ild.out" freq="1" id="nt17_nt18_0" lane="nt17_nt18_0" pos="-50" endPos="-1"/>
  <laneAreaDetector file="ild.out" freq="1" id="nt18_nt17_0" lane="nt18_nt17_0" pos="-50" endPos="-1"/>
  <laneAreaDetector file="ild.out" freq="1" id="nt17_nt18_1" lane="nt17_nt18_1" pos="-50" endPos="-1"/>
  <laneAreaDetector file="ild.out" freq="1" id="nt18_nt17_1" lane="nt18_nt17_1" pos="-50" endPos="-1"/>
  <laneAreaDetector file="ild.out" freq="1" id="nt18_nt19_0" lane="nt18_nt19_0" pos="-50" endPos="-1"/>
  <laneAreaDetector file="ild.out" freq="1" id="nt19_nt18_0" lane="nt19_nt18_0" pos="-50" endPos="-1"/>
  <laneAreaDetector file="ild.out" freq="1" id="nt18_nt19_1" lane="nt18_nt19_1" pos="-50" endPos="-1"/>
  <laneAreaDetector file="ild.out" freq="1" id="nt19_nt18_1" lane="nt19_nt18_1" pos="-50" endPos="-1"/>
  <laneAreaDetector file="ild.out" freq="1" id="nt19_nt20_0" lane="nt19_nt20_0" pos="-50" endPos="-1"/>
  <laneAreaDetector file="ild.out" freq="1" id="nt20_nt19_0" lane="nt20_nt19_0" pos="-50" endPos="-1"/>
  <laneAreaDetector file="ild.out" freq="1" id="nt19_nt20_1" lane="nt19_nt20_1" pos="-50" endPos="-1"/>
  <laneAreaDetector file="ild.out" freq="1" id="nt20_nt19_1" lane="nt20_nt19_1" pos="-50" endPos="-1"/>
  <laneAreaDetector file="ild.out" freq="1" id="nt20_nt21_0" lane="nt20_nt21_0" pos="-50" endPos="-1"/>
  <laneAreaDetector file="ild.out" freq="1" id="nt21_nt20_0" lane="nt21_nt20_0" pos="-50" endPos="-1"/>
  <laneAreaDetector file="ild.out" freq="1" id="nt20_nt21_1" lane="nt20_nt21_1" pos="-50" endPos="-1"/>
  <laneAreaDetector file="ild.out" freq="1" id="nt21_nt20_1" lane="nt21_nt20_1" pos="-50" endPos="-1"/>
  <laneAreaDetector file="ild.out" freq="1" id="nt22_nt23_0" lane="nt22_nt23_0" pos="-50" endPos="-1"/>
  <laneAreaDetector file="ild.out" freq="1" id="nt23_nt22_0" lane="nt23_nt22_0" pos="-50" endPos="-1"/>
  <laneAreaDetector file="ild.out" freq="1" id="nt22_nt23_1" lane="nt22_nt23_1" pos="-50" endPos="-1"/>
  <laneAreaDetector file="ild.out" freq="1" id="nt23_nt22_1" lane="nt23_nt22_1" pos="-50" endPos="-1"/>
  <laneAreaDetector file="ild.out" freq="1" id="nt23_nt24_0" lane="nt23_nt24_0" pos="-50" endPos="-1"/>
  <laneAreaDetector file="ild.out" freq="1" id="nt24_nt23_0" lane="nt24_nt23_0" pos="-50" endPos="-1"/>
  <laneAreaDetector file="ild.out" freq="1" id="nt23_nt24_1" lane="nt23_nt24_1" pos="-50" endPos="-1"/>
  <laneAreaDetector file="ild.out" freq="1" id="nt24_nt23_1" lane="nt24_nt23_1" pos="-50" endPos="-1"/>
  <laneAreaDetector file="ild.out" freq="1" id="nt24_nt25_0" lane="nt24_nt25_0" pos="-50" endPos="-1"/>
  <laneAreaDetector file="ild.out" freq="1" id="nt25_nt24_0" lane="nt25_nt24_0" pos="-50" endPos="-1"/>
  <laneAreaDetector file="ild.out" freq="1" id="nt24_nt25_1" lane="nt24_nt25_1" pos="-50" endPos="-1"/>
  <laneAreaDetector file="ild.out" freq="1" id="nt25_nt24_1" lane="nt25_nt24_1" pos="-50" endPos="-1"/>
  <laneAreaDetector file="ild.out" freq="1" id="nt25_nt26_0" lane="nt25_nt26_0" pos="-50" endPos="-1"/>
  <laneAreaDetector file="ild.out" freq="1" id="nt26_nt25_0" lane="nt26_nt25_0" pos="-50" endPos="-1"/>
  <laneAreaDetector file="ild.out" freq="1" id="nt25_nt26_1" lane="nt25_nt26_1" pos="-50" endPos="-1"/>
  <laneAreaDetector file="ild.out" freq="1" id="nt26_nt25_1" lane="nt26_nt25_1" pos="-50" endPos="-1"/>
  <laneAreaDetector file="ild.out" freq="1" id="nt26_nt27_0" lane="nt26_nt27_0" pos="-50" endPos="-1"/>
  <laneAreaDetector file="ild.out" freq="1" id="nt27_nt26_0" lane="nt27_nt26_0" pos="-50" endPos="-1"/>
  <laneAreaDetector file="ild.out" freq="1" id="nt26_nt27_1" lane="nt26_nt27_1" pos="-50" endPos="-1"/>
  <laneAreaDetector file="ild.out" freq="1" id="nt27_nt26_1" lane="nt27_nt26_1" pos="-50" endPos="-1"/>
  <laneAreaDetector file="ild.out" freq="1" id="nt27_nt28_0" lane="nt27_nt28_0" pos="-50" endPos="-1"/>
  <laneAreaDetector file="ild.out" freq="1" id="nt28_nt27_0" lane="nt28_nt27_0" pos="-50" endPos="-1"/>
  <laneAreaDetector file="ild.out" freq="1" id="nt27_nt28_1" lane="nt27_nt28_1" pos="-50" endPos="-1"/>
  <laneAreaDetector file="ild.out" freq="1" id="nt28_nt27_1" lane="nt28_nt27_1" pos="-50" endPos="-1"/>
  <laneAreaDetector file="ild.out" freq="1" id="nt29_nt30_0" lane="nt29_nt30_0" pos="-50" endPos="-1"/>
  <laneAreaDetector file="ild.out" freq="1" id="nt30_nt29_0" lane="nt30_nt29_0" pos="-50" endPos="-1"/>
  <laneAreaDetector file="ild.out" freq="1" id="nt29_nt30_1" lane="nt29_nt30_1" pos="-50" endPos="-1"/>
  <laneAreaDetector file="ild.out" freq="1" id="nt30_nt29_1" lane="nt30_nt29_1" pos="-50" endPos="-1"/>
  <laneAreaDetector file="ild.out" freq="1" id="nt30_nt31_0" lane="nt30_nt31_0" pos="-50" endPos="-1"/>
  <laneAreaDetector file="ild.out" freq="1" id="nt31_nt30_0" lane="nt31_nt30_0" pos="-50" endPos="-1"/>
  <laneAreaDetector file="ild.out" freq="1" id="nt30_nt31_1" lane="nt30_nt31_1" pos="-50" endPos="-1"/>
  <laneAreaDetector file="ild.out" freq="1" id="nt31_nt30_1" lane="nt31_nt30_1" pos="-50" endPos="-1"/>
  <laneAreaDetector file="ild.out" freq="1" id="nt31_nt32_0" lane="nt31_nt32_0" pos="-50" endPos="-1"/>
  <laneAreaDetector file="ild.out" freq="1" id="nt32_nt31_0" lane="nt32_nt31_0" pos="-50" endPos="-1"/>
  <laneAreaDetector file="ild.out" freq="1" id="nt31_nt32_1" lane="nt31_nt32_1" pos="-50" endPos="-1"/>
  <laneAreaDetector file="ild.out" freq="1" id="nt32_nt31_1" lane="nt32_nt31_1" pos="-50" endPos="-1"/>
  <laneAreaDetector file="ild.out" freq="1" id="nt32_nt33_0" lane="nt32_nt33_0" pos="-50" endPos="-1"/>
  <laneAreaDetector file="ild.out" freq="1" id="nt33_nt32_0" lane="nt33_nt32_0" pos="-50" endPos="-1"/>
  <laneAreaDetector file="ild.out" freq="1" id="nt32_nt33_1" lane="nt32_nt33_1" pos="-50" endPos="-1"/>
  <laneAreaDetector file="ild.out" freq="1" id="nt33_nt32_1" lane="nt33_nt32_1" pos="-50" endPos="-1"/>
  <laneAreaDetector file="ild.out" freq="1" id="nt33_nt34_0" lane="nt33_nt34_0" pos="-50" endPos="-1"/>
  <laneAreaDetector file="ild.out" freq="1" id="nt34_nt33_0" lane="nt34_nt33_0" pos="-50" endPos="-1"/>
  <laneAreaDetector file="ild.out" freq="1" id="nt33_nt34_1" lane="nt33_nt34_1" pos="-50" endPos="-1"/>
  <laneAreaDetector file="ild.out" freq="1" id="nt34_nt33_1" lane="nt34_nt33_1" pos="-50" endPos="-1"/>
  <laneAreaDetector file="ild.out" freq="1" id="nt34_nt35_0" lane="nt34_nt35_0" pos="-50" endPos="-1"/>
  <laneAreaDetector file="ild.out" freq="1" id="nt35_nt34_0" lane="nt35_nt34_0" pos="-50" endPos="-1"/>
  <laneAreaDetector file="ild.out" freq="1" id="nt34_nt35_1" lane="nt34_nt35_1" pos="-50" endPos="-1"/>
  <laneAreaDetector file="ild.out" freq="1" id="nt35_nt34_1" lane="nt35_nt34_1" pos="-50" endPos="-1"/>
  <laneAreaDetector file="ild.out" freq="1" id="nt36_nt37_0" lane="nt36_nt37_0" pos="-50" endPos="-1"/>
  <laneAreaDetector file="ild.out" freq="1" id="nt37_nt36_0" lane="nt37_nt36_0" pos="-50" endPos="-1"/>
  <laneAreaDetector file="ild.out" freq="1" id="nt36_nt37_1" lane="nt36_nt37_1" pos="-50" endPos="-1"/>
  <laneAreaDetector file="ild.out" freq="1" id="nt37_nt36_1" lane="nt37_nt36_1" pos="-50" endPos="-1"/>
  <laneAreaDetector file="ild.out" freq="1" id="nt37_nt38_0" lane="nt37_nt38_0" pos="-50" endPos="-1"/>
  <laneAreaDetector file="ild.out" freq="1" id="nt38_nt37_0" lane="nt38_nt37_0" pos="-50" endPos="-1"/>
  <laneAreaDetector file="ild.out" freq="1" id="nt37_nt38_1" lane="nt37_nt38_1" pos="-50" endPos="-1"/>
  <laneAreaDetector file="ild.out" freq="1" id="nt38_nt37_1" lane="nt38_nt37_1" pos="-50" endPos="-1"/>
  <laneAreaDetector file="ild.out" freq="1" id="nt38_nt39_0" lane="nt38_nt39_0" pos="-50" endPos="-1"/>
  <laneAreaDetector file="ild.out" freq="1" id="nt39_nt38_0" lane="nt39_nt38_0" pos="-50" endPos="-1"/>
  <laneAreaDetector file="ild.out" freq="1" id="nt38_nt39_1" lane="nt38_nt39_1" pos="-50" endPos="-1"/>
  <laneAreaDetector file="ild.out" freq="1" id="nt39_nt38_1" lane="nt39_nt38_1" pos="-50" endPos="-1"/>
  <laneAreaDetector file="ild.out" freq="1" id="nt39_nt40_0" lane="nt39_nt40_0" pos="-50" endPos="-1"/>
  <laneAreaDetector file="ild.out" freq="1" id="nt40_nt39_0" lane="nt40_nt39_0" pos="-50" endPos="-1"/>
  <laneAreaDetector file="ild.out" freq="1" id="nt39_nt40_1" lane="nt39_nt40_1" pos="-50" endPos="-1"/>
  <laneAreaDetector file="ild.out" freq="1" id="nt40_nt39_1" lane="nt40_nt39_1" pos="-50" endPos="-1"/>
  <laneAreaDetector file="ild.out" freq="1" id="nt40_nt41_0" lane="nt40_nt41_0" pos="-50" endPos="-1"/>
  <laneAreaDetector file="ild.out" freq="1" id="nt41_nt40_0" lane="nt41_nt40_0" pos="-50" endPos="-1"/>
  <laneAreaDetector file="ild.out" freq="1" id="nt40_nt41_1" lane="nt40_nt41_1" pos="-50" endPos="-1"/>
  <laneAreaDetector file="ild.out" freq="1" id="nt41_nt40_1" lane="nt41_nt40_1" pos="-50" endPos="-1"/>
  <laneAreaDetector file="ild.out" freq="1" id="nt41_nt42_0" lane="nt41_nt42_0" pos="-50" endPos="-1"/>
  <laneAreaDetector file="ild.out" freq="1" id="nt42_nt41_0" lane="nt42_nt41_0" pos="-50" endPos="-1"/>
  <laneAreaDetector file="ild.out" freq="1" id="nt41_nt42_1" lane="nt41_nt42_1" pos="-50" endPos="-1"/>
  <laneAreaDetector file="ild.out" freq="1" id="nt42_nt41_1" lane="nt42_nt41_1" pos="-50" endPos="-1"/>
  <laneAreaDetector file="ild.out" freq="1" id="nt43_nt44_0" lane="nt43_nt44_0" pos="-50" endPos="-1"/>
  <laneAreaDetector file="ild.out" freq="1" id="nt44_nt43_0" lane="nt44_nt43_0" pos="-50" endPos="-1"/>
  <laneAreaDetector file="ild.out" freq="1" id="nt43_nt44_1" lane="nt43_nt44_1" pos="-50" endPos="-1"/>
  <laneAreaDetector file="ild.out" freq="1" id="nt44_nt43_1" lane="nt44_nt43_1" pos="-50" endPos="-1"/>
  <laneAreaDetector file="ild.out" freq="1" id="nt44_nt45_0" lane="nt44_nt45_0" pos="-50" endPos="-1"/>
  <laneAreaDetector file="ild.out" freq="1" id="nt45_nt44_0" lane="nt45_nt44_0" pos="-50" endPos="-1"/>
  <laneAreaDetector file="ild.out" freq="1" id="nt44_nt45_1" lane="nt44_nt45_1" pos="-50" endPos="-1"/>
  <laneAreaDetector file="ild.out" freq="1" id="nt45_nt44_1" lane="nt45_nt44_1" pos="-50" endPos="-1"/>
  <laneAreaDetector file="ild.out" freq="1" id="nt45_nt46_0" lane="nt45_nt46_0" pos="-50" endPos="-1"/>
  <laneAreaDetector file="ild.out" freq="1" id="nt46_nt45_0" lane="nt46_nt45_0" pos="-50" endPos="-1"/>
  <laneAreaDetector file="ild.out" freq="1" id="nt45_nt46_1" lane="nt45_nt46_1" pos="-50" endPos="-1"/>
  <laneAreaDetector file="ild.out" freq="1" id="nt46_nt45_1" lane="nt46_nt45_1" pos="-50" endPos="-1"/>
  <laneAreaDetector file="ild.out" freq="1" id="nt46_nt47_0" lane="nt46_nt47_0" pos="-50" endPos="-1"/>
  <laneAreaDetector file="ild.out" freq="1" id="nt47_nt46_0" lane="nt47_nt46_0" pos="-50" endPos="-1"/>
  <laneAreaDetector file="ild.out" freq="1" id="nt46_nt47_1" lane="nt46_nt47_1" pos="-50" endPos="-1"/>
  <laneAreaDetector file="ild.out" freq="1" id="nt47_nt46_1" lane="nt47_nt46_1" pos="-50" endPos="-1"/>
  <laneAreaDetector file="ild.out" freq="1" id="nt47_nt48_0" lane="nt47_nt48_0" pos="-50" endPos="-1"/>
  <laneAreaDetector file="ild.out" freq="1" id="nt48_nt47_0" lane="nt48_nt47_0" pos="-50" endPos="-1"/>
  <laneAreaDetector file="ild.out" freq="1" id="nt47_nt48_1" lane="nt47_nt48_1" pos="-50" endPos="-1"/>
  <laneAreaDetector file="ild.out" freq="1" id="nt48_nt47_1" lane="nt48_nt47_1" pos="-50" endPos="-1"/>
  <laneAreaDetector file="ild.out" freq="1" id="nt48_nt49_0" lane="nt48_nt49_0" pos="-50" endPos="-1"/>
  <laneAreaDetector file="ild.out" freq="1" id="nt49_nt48_0" lane="nt49_nt48_0" pos="-50" endPos="-1"/>
  <laneAreaDetector file="ild.out" freq="1" id="nt48_nt49_1" lane="nt48_nt49_1" pos="-50" endPos="-1"/>
  <laneAreaDetector file="ild.out" freq="1" id="nt49_nt48_1" lane="nt49_nt48_1" pos="-50" endPos="-1"/>
  <laneAreaDetector file="ild.out" freq="1" id="nt1_nt8_0" lane="nt1_nt8_0" pos="-50" endPos="-1"/>
  <laneAreaDetector file="ild.out" freq="1" id="nt8_nt1_0" lane="nt8_nt1_0" pos="-50" endPos="-1"/>
  <laneAreaDetector file="ild.out" freq="1" id="nt8_nt15_0" lane="nt8_nt15_0" pos="-50" endPos="-1"/>
  <laneAreaDetector file="ild.out" freq="1" id="nt15_nt8_0" lane="nt15_nt8_0" pos="-50" endPos="-1"/>
  <laneAreaDetector file="ild.out" freq="1" id="nt15_nt22_0" lane="nt15_nt22_0" pos="-50" endPos="-1"/>
  <laneAreaDetector file="ild.out" freq="1" id="nt22_nt15_0" lane="nt22_nt15_0" pos="-50" endPos="-1"/>
  <laneAreaDetector file="ild.out" freq="1" id="nt22_nt29_0" lane="nt22_nt29_0" pos="-50" endPos="-1"/>
  <laneAreaDetector file="ild.out" freq="1" id="nt29_nt22_0" lane="nt29_nt22_0" pos="-50" endPos="-1"/>
  <laneAreaDetector file="ild.out" freq="1" id="nt29_nt36_0" lane="nt29_nt36_0" pos="-50" endPos="-1"/>
  <laneAreaDetector file="ild.out" freq="1" id="nt36_nt29_0" lane="nt36_nt29_0" pos="-50" endPos="-1"/>
  <laneAreaDetector file="ild.out" freq="1" id="nt36_nt43_0" lane="nt36_nt43_0" pos="-50" endPos="-1"/>
  <laneAreaDetector file="ild.out" freq="1" id="nt43_nt36_0" lane="nt43_nt36_0" pos="-50" endPos="-1"/>
  <laneAreaDetector file="ild.out" freq="1" id="nt2_nt9_0" lane="nt2_nt9_0" pos="-50" endPos="-1"/>
  <laneAreaDetector file="ild.out" freq="1" id="nt9_nt2_0" lane="nt9_nt2_0" pos="-50" endPos="-1"/>
  <laneAreaDetector file="ild.out" freq="1" id="nt9_nt16_0" lane="nt9_nt16_0" pos="-50" endPos="-1"/>
  <laneAreaDetector file="ild.out" freq="1" id="nt16_nt9_0" lane="nt16_nt9_0" pos="-50" endPos="-1"/>
  <laneAreaDetector file="ild.out" freq="1" id="nt16_nt23_0" lane="nt16_nt23_0" pos="-50" endPos="-1"/>
  <laneAreaDetector file="ild.out" freq="1" id="nt23_nt16_0" lane="nt23_nt16_0" pos="-50" endPos="-1"/>
  <laneAreaDetector file="ild.out" freq="1" id="nt23_nt30_0" lane="nt23_nt30_0" pos="-50" endPos="-1"/>
  <laneAreaDetector file="ild.out" freq="1" id="nt30_nt23_0" lane="nt30_nt23_0" pos="-50" endPos="-1"/>
  <laneAreaDetector file="ild.out" freq="1" id="nt30_nt37_0" lane="nt30_nt37_0" pos="-50" endPos="-1"/>
  <laneAreaDetector file="ild.out" freq="1" id="nt37_nt30_0" lane="nt37_nt30_0" pos="-50" endPos="-1"/>
  <laneAreaDetector file="ild.out" freq="1" id="nt37_nt44_0" lane="nt37_nt44_0" pos="-50" endPos="-1"/>
  <laneAreaDetector file="ild.out" freq="1" id="nt44_nt37_0" lane="nt44_nt37_0" pos="-50" endPos="-1"/>
  <laneAreaDetector file="ild.out" freq="1" id="nt3_nt10_0" lane="nt3_nt10_0" pos="-50" endPos="-1"/>
  <laneAreaDetector file="ild.out" freq="1" id="nt10_nt3_0" lane="nt10_nt3_0" pos="-50" endPos="-1"/>
  <laneAreaDetector file="ild.out" freq="1" id="nt10_nt17_0" lane="nt10_nt17_0" pos="-50" endPos="-1"/>
  <laneAreaDetector file="ild.out" freq="1" id="nt17_nt10_0" lane="nt17_nt10_0" pos="-50" endPos="-1"/>
  <laneAreaDetector file="ild.out" freq="1" id="nt17_nt24_0" lane="nt17_nt24_0" pos="-50" endPos="-1"/>
  <laneAreaDetector file="ild.out" freq="1" id="nt24_nt17_0" lane="nt24_nt17_0" pos="-50" endPos="-1"/>
  <laneAreaDetector file="ild.out" freq="1" id="nt24_nt31_0" lane="nt24_nt31_0" pos="-50" endPos="-1"/>
  <laneAreaDetector file="ild.out" freq="1" id="nt31_nt24_0" lane="nt31_nt24_0" pos="-50" endPos="-1"/>
  <laneAreaDetector file="ild.out" freq="1" id="nt31_nt38_0" lane="nt31_nt38_0" pos="-50" endPos="-1"/>
  <laneAreaDetector file="ild.out" freq="1" id="nt38_nt31_0" lane="nt38_nt31_0" pos="-50" endPos="-1"/>
  <laneAreaDetector file="ild.out" freq="1" id="nt38_nt45_0" lane="nt38_nt45_0" pos="-50" endPos="-1"/>
  <laneAreaDetector file="ild.out" freq="1" id="nt45_nt38_0" lane="nt45_nt38_0" pos="-50" endPos="-1"/>
  <laneAreaDetector file="ild.out" freq="1" id="nt4_nt11_0" lane="nt4_nt11_0" pos="-50" endPos="-1"/>
  <laneAreaDetector file="ild.out" freq="1" id="nt11_nt4_0" lane="nt11_nt4_0" pos="-50" endPos="-1"/>