<?xml version="1.0" encoding="UTF-8"?>

<!-- generated on 2022-12-18 18:25:09 by Eclipse SUMO netconvert Version 1.9.2
<configuration xmlns:xsi="http://www.w3.org/2001/XMLSchema-instance" xsi:noNamespaceSchemaLocation="http://sumo.dlr.de/xsd/netconvertConfiguration.xsd">

    <input>
        <node-files value="exp.nod.xml"/>
        <edge-files value="exp.edg.xml"/>
        <connection-files value="exp.con.xml"/>
        <tllogic-files value="exp.tll.xml"/>
        <type-files value="exp.typ.xml"/>
    </input>

    <output>
        <output-file value="exp.net.xml"/>
    </output>

    <report>
        <aggregate-warnings value="5"/>
    </report>

</configuration>
-->

<net version="1.9" junctionCornerDetail="5" limitTurnSpeed="5.50" xmlns:xsi="http://www.w3.org/2001/XMLSchema-instance" xsi:noNamespaceSchemaLocation="http://sumo.dlr.de/xsd/net_file.xsd">

    <location netOffset="75.00,75.00" convBoundary="0.00,0.00,1350.00,1350.00" origBoundary="-75.00,-75.00,1275.00,1275.00" projParameter="!"/>

    <type id="a" priority="2" numLanes="2" speed="20.00"/>
    <type id="b" priority="1" numLanes="1" speed="11.00"/>

    <edge id=":np1_0" function="internal">
        <lane id=":np1_0_0" index="0" speed="3.65" length="4.67" shape="73.40,0.00 74.20,-1.20 75.00,-1.60 75.80,-1.20 76.60,0.00"/>
    </edge>
    <edge id=":np10_0" function="internal">
        <lane id=":np10_0_0" index="0" speed="3.65" length="4.67" shape="1350.00,473.40 1351.20,474.20 1351.60,475.00 1351.20,475.80 1350.00,476.60"/>
    </edge>
    <edge id=":np11_0" function="internal">
        <lane id=":np11_0_0" index="0" speed="3.65" length="4.67" shape="1350.00,673.40 1351.20,674.20 1351.60,675.00 1351.20,675.80 1350.00,676.60"/>
    </edge>
    <edge id=":np12_0" function="internal">
        <lane id=":np12_0_0" index="0" speed="3.65" length="4.67" shape="1350.00,873.40 1351.20,874.20 1351.60,875.00 1351.20,875.80 1350.00,876.60"/>
    </edge>
    <edge id=":np13_0" function="internal">
        <lane id=":np13_0_0" index="0" speed="3.65" length="4.67" shape="1350.00,1073.40 1351.20,1074.20 1351.60,1075.00 1351.20,1075.80 1350.00,1076.60"/>
    </edge>
    <edge id=":np14_0" function="internal">
        <lane id=":np14_0_0" index="0" speed="3.65" length="4.67" shape="1350.00,1273.40 1351.20,1274.20 1351.60,1275.00 1351.20,1275.80 1350.00,1276.60"/>
    </edge>
    <edge id=":np15_0" function="internal">
        <lane id=":np15_0_0" index="0" speed="3.65" length="4.67" shape="1276.60,1350.00 1275.80,1351.20 1275.00,1351.60 1274.20,1351.20 1273.40,1350.00"/>
    </edge>
    <edge id=":np16_0" function="internal">
        <lane id=":np16_0_0" index="0" speed="3.65" length="4.67" shape="1076.60,1350.00 1075.80,1351.20 1075.00,1351.60 1074.20,1351.20 1073.40,1350.00"/>
    </edge>
    <edge id=":np17_0" function="internal">
        <lane id=":np17_0_0" index="0" speed="3.65" length="4.67" shape="876.60,1350.00 875.80,1351.20 875.00,1351.60 874.20,1351.20 873.40,1350.00"/>
    </edge>
    <edge id=":np18_0" function="internal">
        <lane id=":np18_0_0" index="0" speed="3.65" length="4.67" shape="676.60,1350.00 675.80,1351.20 675.00,1351.60 674.20,1351.20 673.40,1350.00"/>
    </edge>
    <edge id=":np19_0" function="internal">
        <lane id=":np19_0_0" index="0" speed="3.65" length="4.67" shape="476.60,1350.00 475.80,1351.20 475.00,1351.60 474.20,1351.20 473.40,1350.00"/>
    </edge>
    <edge id=":np2_0" function="internal">
        <lane id=":np2_0_0" index="0" speed="3.65" length="4.67" shape="273.40,0.00 274.20,-1.20 275.00,-1.60 275.80,-1.20 276.60,0.00"/>
    </edge>
    <edge id=":np20_0" function="internal">
        <lane id=":np20_0_0" index="0" speed="3.65" length="4.67" shape="276.60,1350.00 275.80,1351.20 275.00,1351.60 274.20,1351.20 273.40,1350.00"/>
    </edge>
    <edge id=":np21_0" function="internal">
        <lane id=":np21_0_0" index="0" speed="3.65" length="4.67" shape="76.60,1350.00 75.80,1351.20 75.00,1351.60 74.20,1351.20 73.40,1350.00"/>
    </edge>
    <edge id=":np22_0" function="internal">
        <lane id=":np22_0_0" index="0" speed="3.65" length="4.67" shape="0.00,1276.60 -1.20,1275.80 -1.60,1275.00 -1.20,1274.20 0.00,1273.40"/>
    </edge>
    <edge id=":np23_0" function="internal">
        <lane id=":np23_0_0" index="0" speed="3.65" length="4.67" shape="0.00,1076.60 -1.20,1075.80 -1.60,1075.00 -1.20,1074.20 0.00,1073.40"/>
    </edge>
    <edge id=":np24_0" function="internal">
        <lane id=":np24_0_0" index="0" speed="3.65" length="4.67" shape="0.00,876.60 -1.20,875.80 -1.60,875.00 -1.20,874.20 0.00,873.40"/>
    </edge>
    <edge id=":np25_0" function="internal">
        <lane id=":np25_0_0" index="0" speed="3.65" length="4.67" shape="0.00,676.60 -1.20,675.80 -1.60,675.00 -1.20,674.20 0.00,673.40"/>
    </edge>
    <edge id=":np26_0" function="internal">
        <lane id=":np26_0_0" index="0" speed="3.65" length="4.67" shape="0.00,476.60 -1.20,475.80 -1.60,475.00 -1.20,474.20 0.00,473.40"/>
    </edge>
    <edge id=":np27_0" function="internal">
        <lane id=":np27_0_0" index="0" speed="3.65" length="4.67" shape="0.00,276.60 -1.20,275.80 -1.60,275.00 -1.20,274.20 0.00,273.40"/>
    </edge>
    <edge id=":np28_0" function="internal">
        <lane id=":np28_0_0" index="0" speed="3.65" length="4.67" shape="0.00,76.60 -1.20,75.80 -1.60,75.00 -1.20,74.20 0.00,73.40"/>
    </edge>
    <edge id=":np3_0" function="internal">
        <lane id=":np3_0_0" index="0" speed="3.65" length="4.67" shape="473.40,0.00 474.20,-1.20 475.00,-1.60 475.80,-1.20 476.60,0.00"/>
    </edge>
    <edge id=":np4_0" function="internal">
        <lane id=":np4_0_0" index="0" speed="3.65" length="4.67" shape="673.40,0.00 674.20,-1.20 675.00,-1.60 675.80,-1.20 676.60,0.00"/>
    </edge>
    <edge id=":np5_0" function="internal">
        <lane id=":np5_0_0" index="0" speed="3.65" length="4.67" shape="873.40,0.00 874.20,-1.20 875.00,-1.60 875.80,-1.20 876.60,0.00"/>
    </edge>
    <edge id=":np6_0" function="internal">
        <lane id=":np6_0_0" index="0" speed="3.65" length="4.67" shape="1073.40,0.00 1074.20,-1.20 1075.00,-1.60 1075.80,-1.20 1076.60,0.00"/>
    </edge>
    <edge id=":np7_0" function="internal">
        <lane id=":np7_0_0" index="0" speed="3.65" length="4.67" shape="1273.40,0.00 1274.20,-1.20 1275.00,-1.60 1275.80,-1.20 1276.60,0.00"/>
    </edge>
    <edge id=":np8_0" function="internal">
        <lane id=":np8_0_0" index="0" speed="3.65" length="4.67" shape="1350.00,73.40 1351.20,74.20 1351.60,75.00 1351.20,75.80 1350.00,76.60"/>
    </edge>
    <edge id=":np9_0" function="internal">
        <lane id=":np9_0_0" index="0" speed="3.65" length="4.67" shape="1350.00,273.40 1351.20,274.20 1351.60,275.00 1351.20,275.80 1350.00,276.60"/>
    </edge>
    <edge id=":nt1_0" function="internal">
        <lane id=":nt1_0_0" index="0" speed="6.51" length="9.03" shape="73.40,85.40 73.05,82.95 72.00,81.20 70.25,80.15 67.80,79.80"/>
    </edge>
    <edge id=":nt1_1" function="internal">
        <lane id=":nt1_1_0" index="0" speed="11.00" length="20.80" shape="73.40,85.40 73.40,64.60"/>
    </edge>
    <edge id=":nt1_2" function="internal">
        <lane id=":nt1_2_0" index="0" speed="8.67" length="7.89" shape="73.40,85.40 73.95,80.15 75.00,77.76"/>
    </edge>
    <edge id=":nt1_12" function="internal">
        <lane id=":nt1_12_0" index="0" speed="8.67" length="8.97" shape="75.00,77.76 75.60,76.40 78.35,74.15 82.20,73.40"/>
    </edge>
    <edge id=":nt1_3" function="internal">
        <lane id=":nt1_3_0" index="0" speed="6.51" length="9.03" shape="82.20,79.80 79.75,80.15 78.00,81.20 76.95,82.95 76.60,85.40"/>
    </edge>
    <edge id=":nt1_4" function="internal">
        <lane id=":nt1_4_0" index="0" speed="20.00" length="14.40" shape="82.20,79.80 67.80,79.80"/>
    </edge>
    <edge id=":nt1_5" function="internal">
        <lane id=":nt1_5_0" index="0" speed="8.67" length="16.85" shape="82.20,76.60 78.35,75.85 75.60,73.60 73.95,69.85 73.40,64.60"/>
    </edge>
    <edge id=":nt1_6" function="internal">
        <lane id=":nt1_6_0" index="0" speed="6.51" length="9.03" shape="76.60,64.60 76.95,67.05 78.00,68.80 79.75,69.85 82.20,70.20"/>
    </edge>
    <edge id=":nt1_7" function="internal">
        <lane id=":nt1_7_0" index="0" speed="11.00" length="20.80" shape="76.60,64.60 76.60,85.40"/>
    </edge>
    <edge id=":nt1_8" function="internal">
        <lane id=":nt1_8_0" index="0" speed="8.67" length="7.89" shape="76.60,64.60 76.05,69.85 75.00,72.24"/>
    </edge>
    <edge id=":nt1_13" function="internal">
        <lane id=":nt1_13_0" index="0" speed="8.67" length="8.97" shape="75.00,72.24 74.40,73.60 71.65,75.85 67.80,76.60"/>
    </edge>
    <edge id=":nt1_9" function="internal">
        <lane id=":nt1_9_0" index="0" speed="6.51" length="9.03" shape="67.80,70.20 70.25,69.85 72.00,68.80 73.05,67.05 73.40,64.60"/>
    </edge>
    <edge id=":nt1_10" function="internal">
        <lane id=":nt1_10_0" index="0" speed="20.00" length="14.40" shape="67.80,70.20 82.20,70.20"/>
    </edge>
    <edge id=":nt1_11" function="internal">
        <lane id=":nt1_11_0" index="0" speed="8.67" length="16.85" shape="67.80,73.40 71.65,74.15 74.40,76.40 76.05,80.15 76.60,85.40"/>
    </edge>
    <edge id=":nt10_0" function="internal">
        <lane id=":nt10_0_0" index="0" speed="6.51" length="9.03" shape="473.40,285.40 473.05,282.95 472.00,281.20 470.25,280.15 467.80,279.80"/>
    </edge>
    <edge id=":nt10_1" function="internal">
        <lane id=":nt10_1_0" index="0" speed="11.00" length="20.80" shape="473.40,285.40 473.40,264.60"/>
    </edge>
    <edge id=":nt10_2" function="internal">
        <lane id=":nt10_2_0" index="0" speed="8.67" length="7.89" shape="473.40,285.40 473.95,280.15 475.00,277.76"/>
    </edge>
    <edge id=":nt10_12" function="internal">
        <lane id=":nt10_12_0" index="0" speed="8.67" length="8.97" shape="475.00,277.76 475.60,276.40 478.35,274.15 482.20,273.40"/>
    </edge>
    <edge id=":nt10_3" function="internal">
        <lane id=":nt10_3_0" index="0" speed="6.51" length="9.03" shape="482.20,279.80 479.75,280.15 478.00,281.20 476.95,282.95 476.60,285.40"/>
    </edge>
    <edge id=":nt10_4" function="internal">
        <lane id=":nt10_4_0" index="0" speed="20.00" length="14.40" shape="482.20,279.80 467.80,279.80"/>
    </edge>
    <edge id=":nt10_5" function="internal">
        <lane id=":nt10_5_0" index="0" speed="8.67" length="16.85" shape="482.20,276.60 478.35,275.85 475.60,273.60 473.95,269.85 473.40,264.60"/>
    </edge>
    <edge id=":nt10_6" function="internal">
        <lane id=":nt10_6_0" index="0" speed="6.51" length="9.03" shape="476.60,264.60 476.95,267.05 478.00,268.80 479.75,269.85 482.20,270.20"/>
    </edge>
    <edge id=":nt10_7" function="internal">
        <lane id=":nt10_7_0" index="0" speed="11.00" length="20.80" shape="476.60,264.60 476.60,285.40"/>
    </edge>
    <edge id=":nt10_8" function="internal">
        <lane id=":nt10_8_0" index="0" speed="8.67" length="7.89" shape="476.60,264.60 476.05,269.85 475.00,272.24"/>
    </edge>
    <edge id=":nt10_13" function="internal">
        <lane id=":nt10_13_0" index="0" speed="8.67" length="8.97" shape="475.00,272.24 474.40,273.60 471.65,275.85 467.80,276.60"/>
    </edge>
    <edge id=":nt10_9" function="internal">
        <lane id=":nt10_9_0" index="0" speed="6.51" length="9.03" shape="467.80,270.20 470.25,269.85 472.00,268.80 473.05,267.05 473.40,264.60"/>
    </edge>
    <edge id=":nt10_10" function="internal">
        <lane id=":nt10_10_0" index="0" speed="20.00" length="14.40" shape="467.80,270.20 482.20,270.20"/>
    </edge>
    <edge id=":nt10_11" function="internal">
        <lane id=":nt10_11_0" index="0" speed="8.67" length="16.85" shape="467.80,273.40 471.65,274.15 474.40,276.40 476.05,280.15 476.60,285.40"/>
    </edge>
    <edge id=":nt11_0" function="internal">
        <lane id=":nt11_0_0" index="0" speed="6.51" length="9.03" shape="673.40,285.40 673.05,282.95 672.00,281.20 670.25,280.15 667.80,279.80"/>
    </edge>
    <edge id=":nt11_1" function="internal">
        <lane id=":nt11_1_0" index="0" speed="11.00" length="20.80" shape="673.40,285.40 673.40,264.60"/>
    </edge>
    <edge id=":nt11_2" function="internal">
        <lane id=":nt11_2_0" index="0" speed="8.67" length="7.89" shape="673.40,285.40 673.95,280.15 675.00,277.76"/>
    </edge>
    <edge id=":nt11_12" function="internal">
        <lane id=":nt11_12_0" index="0" speed="8.67" length="8.97" shape="675.00,277.76 675.60,276.40 678.35,274.15 682.20,273.40"/>
    </edge>
    <edge id=":nt11_3" function="internal">
        <lane id=":nt11_3_0" index="0" speed="6.51" length="9.03" shape="682.20,279.80 679.75,280.15 678.00,281.20 676.95,282.95 676.60,285.40"/>
    </edge>
    <edge id=":nt11_4" function="internal">
        <lane id=":nt11_4_0" index="0" speed="20.00" length="14.40" shape="682.20,279.80 667.80,279.80"/>
    </edge>
    <edge id=":nt11_5" function="internal">
        <lane id=":nt11_5_0" index="0" speed="8.67" length="16.85" shape="682.20,276.60 678.35,275.85 675.60,273.60 673.95,269.85 673.40,264.60"/>
    </edge>
    <edge id=":nt11_6" function="internal">
        <lane id=":nt11_6_0" index="0" speed="6.51" length="9.03" shape="676.60,264.60 676.95,267.05 678.00,268.80 679.75,269.85 682.20,270.20"/>
    </edge>
    <edge id=":nt11_7" function="internal">
        <lane id=":nt11_7_0" index="0" speed="11.00" length="20.80" shape="676.60,264.60 676.60,285.40"/>
    </edge>
    <edge id=":nt11_8" function="internal">
        <lane id=":nt11_8_0" index="0" speed="8.67" length="7.89" shape="676.60,264.60 676.05,269.85 675.00,272.24"/>
    </edge>
    <edge id=":nt11_13" function="internal">
        <lane id=":nt11_13_0" index="0" speed="8.67" length="8.97" shape="675.00,272.24 674.40,273.60 671.65,275.85 667.80,276.60"/>
    </edge>
    <edge id=":nt11_9" function="internal">
        <lane id=":nt11_9_0" index="0" speed="6.51" length="9.03" shape="667.80,270.20 670.25,269.85 672.00,268.80 673.05,267.05 673.40,264.60"/>
    </edge>
    <edge id=":nt11_10" function="internal">
        <lane id=":nt11_10_0" index="0" speed="20.00" length="14.40" shape="667.80,270.20 682.20,270.20"/>
    </edge>
    <edge id=":nt11_11" function="internal">
        <lane id=":nt11_11_0" index="0" speed="8.67" length="16.85" shape="667.80,273.40 671.65,274.15 674.40,276.40 676.05,280.15 676.60,285.40"/>
    </edge>
    <edge id=":nt12_0" function="internal">
        <lane id=":nt12_0_0" index="0" speed="6.51" length="9.03" shape="873.40,285.40 873.05,282.95 872.00,281.20 870.25,280.15 867.80,279.80"/>
    </edge>
    <edge id=":nt12_1" function="internal">
        <lane id=":nt12_1_0" index="0" speed="11.00" length="20.80" shape="873.40,285.40 873.40,264.60"/>
    </edge>
    <edge id=":nt12_2" function="internal">
        <lane id=":nt12_2_0" index="0" speed="8.67" length="7.89" shape="873.40,285.40 873.95,280.15 875.00,277.76"/>
    </edge>
    <edge id=":nt12_12" function="internal">
        <lane id=":nt12_12_0" index="0" speed="8.67" length="8.97" shape="875.00,277.76 875.60,276.40 878.35,274.15 882.20,273.40"/>
    </edge>
    <edge id=":nt12_3" function="internal">
        <lane id=":nt12_3_0" index="0" speed="6.51" length="9.03" shape="882.20,279.80 879.75,280.15 878.00,281.20 876.95,282.95 876.60,285.40"/>
    </edge>
    <edge id=":nt12_4" function="internal">
        <lane id=":nt12_4_0" index="0" speed="20.00" length="14.40" shape="882.20,279.80 867.80,279.80"/>
    </edge>
    <edge id=":nt12_5" function="internal">
        <lane id=":nt12_5_0" index="0" speed="8.67" length="16.85" shape="882.20,276.60 878.35,275.85 875.60,273.60 873.95,269.85 873.40,264.60"/>
    </edge>
    <edge id=":nt12_6" function="internal">
        <lane id=":nt12_6_0" index="0" speed="6.51" length="9.03" shape="876.60,264.60 876.95,267.05 878.00,268.80 879.75,269.85 882.20,270.20"/>
    </edge>
    <edge id=":nt12_7" function="internal">
        <lane id=":nt12_7_0" index="0" speed="11.00" length="20.80" shape="876.60,264.60 876.60,285.40"/>
    </edge>
    <edge id=":nt12_8" function="internal">
        <lane id=":nt12_8_0" index="0" speed="8.67" length="7.89" shape="876.60,264.60 876.05,269.85 875.00,272.24"/>
    </edge>
    <edge id=":nt12_13" function="internal">
        <lane id=":nt12_13_0" index="0" speed="8.67" length="8.97" shape="875.00,272.24 874.40,273.60 871.65,275.85 867.80,276.60"/>
    </edge>
    <edge id=":nt12_9" function="internal">
        <lane id=":nt12_9_0" index="0" speed="6.51" length="9.03" shape="867.80,270.20 870.25,269.85 872.00,268.80 873.05,267.05 873.40,264.60"/>
    </edge>
    <edge id=":nt12_10" function="internal">
        <lane id=":nt12_10_0" index="0" speed="20.00" length="14.40" shape="867.80,270.20 882.20,270.20"/>
    </edge>
    <edge id=":nt12_11" function="internal">
        <lane id=":nt12_11_0" index="0" speed="8.67" length="16.85" shape="867.80,273.40 871.65,274.15 874.40,276.40 876.05,280.15 876.60,285.40"/>
    </edge>
    <edge id=":nt13_0" function="internal">
        <lane id=":nt13_0_0" index="0" speed="6.51" length="9.03" shape="1073.40,285.40 1073.05,282.95 1072.00,281.20 1070.25,280.15 1067.80,279.80"/>
    </edge>
    <edge id=":nt13_1" function="internal">
        <lane id=":nt13_1_0" index="0" speed="11.00" length="20.80" shape="1073.40,285.40 1073.40,264.60"/>
    </edge>
    <edge id=":nt13_2" function="internal">
        <lane id=":nt13_2_0" index="0" speed="8.67" length="7.89" shape="1073.40,285.40 1073.95,280.15 1075.00,277.76"/>
    </edge>
    <edge id=":nt13_12" function="internal">
        <lane id=":nt13_12_0" index="0" speed="8.67" length="8.97" shape="1075.00,277.76 1075.60,276.40 1078.35,274.15 1082.20,273.40"/>
    </edge>
    <edge id=":nt13_3" function="internal">
        <lane id=":nt13_3_0" index="0" speed="6.51" length="9.03" shape="1082.20,279.80 1079.75,280.15 1078.00,281.20 1076.95,282.95 1076.60,285.40"/>
    </edge>
    <edge id=":nt13_4" function="internal">
        <lane id=":nt13_4_0" index="0" speed="20.00" length="14.40" shape="1082.20,279.80 1067.80,279.80"/>
    </edge>
    <edge id=":nt13_5" function="internal">
        <lane id=":nt13_5_0" index="0" speed="8.67" length="16.85" shape="1082.20,276.60 1078.35,275.85 1075.60,273.60 1073.95,269.85 1073.40,264.60"/>
    </edge>
    <edge id=":nt13_6" function="internal">
        <lane id=":nt13_6_0" index="0" speed="6.51" length="9.03" shape="1076.60,264.60 1076.95,267.05 1078.00,268.80 1079.75,269.85 1082.20,270.20"/>
    </edge>
    <edge id=":nt13_7" function="internal">
        <lane id=":nt13_7_0" index="0" speed="11.00" length="20.80" shape="1076.60,264.60 1076.60,285.40"/>
    </edge>
    <edge id=":nt13_8" function="internal">
        <lane id=":nt13_8_0" index="0" speed="8.67" length="7.89" shape="1076.60,264.60 1076.05,269.85 1075.00,272.24"/>
    </edge>
    <edge id=":nt13_13" function="internal">
        <lane id=":nt13_13_0" index="0" speed="8.67" length="8.97" shape="1075.00,272.24 1074.40,273.60 1071.65,275.85 1067.80,276.60"/>
    </edge>
    <edge id=":nt13_9" function="internal">
        <lane id=":nt13_9_0" index="0" speed="6.51" length="9.03" shape="1067.80,270.20 1070.25,269.85 1072.00,268.80 1073.05,267.05 1073.40,264.60"/>
    </edge>
    <edge id=":nt13_10" function="internal">
        <lane id=":nt13_10_0" index="0" speed="20.00" length="14.40" shape="1067.80,270.20 1082.20,270.20"/>
    </edge>
    <edge id=":nt13_11" function="internal">
        <lane id=":nt13_11_0" index="0" speed="8.67" length="16.85" shape="1067.80,273.40 1071.65,274.15 1074.40,276.40 1076.05,280.15 1076.60,285.40"/>
    </edge>
    <edge id=":nt14_0" function="internal">
        <lane id=":nt14_0_0" index="0" speed="6.51" length="9.03" shape="1273.40,285.40 1273.05,282.95 1272.00,281.20 1270.25,280.15 1267.80,279.80"/>
    </edge>
    <edge id=":nt14_1" function="internal">
        <lane id=":nt14_1_0" index="0" speed="11.00" length="20.80" shape="1273.40,285.40 1273.40,264.60"/>
    </edge>
    <edge id=":nt14_2" function="internal">
        <lane id=":nt14_2_0" index="0" speed="8.67" length="7.89" shape="1273.40,285.40 1273.95,280.15 1275.00,277.76"/>
    </edge>
    <edge id=":nt14_12" function="internal">
        <lane id=":nt14_12_0" index="0" speed="8.67" length="8.97" shape="1275.00,277.76 1275.60,276.40 1278.35,274.15 1282.20,273.40"/>
    </edge>
    <edge id=":nt14_3" function="internal">
        <lane id=":nt14_3_0" index="0" speed="6.51" length="9.03" shape="1282.20,279.80 1279.75,280.15 1278.00,281.20 1276.95,282.95 1276.60,285.40"/>
    </edge>
    <edge id=":nt14_4" function="internal">
        <lane id=":nt14_4_0" index="0" speed="20.00" length="14.40" shape="1282.20,279.80 1267.80,279.80"/>
    </edge>
    <edge id=":nt14_5" function="internal">
        <lane id=":nt14_5_0" index="0" speed="8.67" length="16.85" shape="1282.20,276.60 1278.35,275.85 1275.60,273.60 1273.95,269.85 1273.40,264.60"/>
    </edge>
    <edge id=":nt14_6" function="internal">
        <lane id=":nt14_6_0" index="0" speed="6.51" length="9.03" shape="1276.60,264.60 1276.95,267.05 1278.00,268.80 1279.75,269.85 1282.20,270.20"/>
    </edge>
    <edge id=":nt14_7" function="internal">
        <lane id=":nt14_7_0" index="0" speed="11.00" length="20.80" shape="1276.60,264.60 1276.60,285.40"/>
    </edge>
    <edge id=":nt14_8" function="internal">
        <lane id=":nt14_8_0" index="0" speed="8.67" length="7.89" shape="1276.60,264.60 1276.05,269.85 1275.00,272.24"/>
    </edge>
    <edge id=":nt14_13" function="internal">
        <lane id=":nt14_13_0" index="0" speed="8.67" length="8.97" shape="1275.00,272.24 1274.40,273.60 1271.65,275.85 1267.80,276.60"/>
    </edge>
    <edge id=":nt14_9" function="internal">
        <lane id=":nt14_9_0" index="0" speed="6.51" length="9.03" shape="1267.80,270.20 1270.25,269.85 1272.00,268.80 1273.05,267.05 1273.40,264.60"/>
    </edge>
    <edge id=":nt14_10" function="internal">
        <lane id=":nt14_10_0" index="0" speed="20.00" length="14.40" shape="1267.80,270.20 1282.20,270.20"/>
    </edge>
    <edge id=":nt14_11" function="internal">
        <lane id=":nt14_11_0" index="0" speed="8.67" length="16.85" shape="1267.80,273.40 1271.65,274.15 1274.40,276.40 1276.05,280.15 1276.60,285.40"/>
    </edge>
    <edge id=":nt15_0" function="internal">
        <lane id=":nt15_0_0" index="0" speed="6.51" length="9.03" shape="73.40,485.40 73.05,482.95 72.00,481.20 70.25,480.15 67.80,479.80"/>
    </edge>
    <edge id=":nt15_1" function="internal">
        <lane id=":nt15_1_0" index="0" speed="11.00" length="20.80" shape="73.40,485.40 73.40,464.60"/>
    </edge>
    <edge id=":nt15_2" function="internal">
        <lane id=":nt15_2_0" index="0" speed="8.67" length="7.89" shape="73.40,485.40 73.95,480.15 75.00,477.76"/>
    </edge>
    <edge id=":nt15_12" function="internal">
        <lane id=":nt15_12_0" index="0" speed="8.67" length="8.97" shape="75.00,477.76 75.60,476.40 78.35,474.15 82.20,473.40"/>
    </edge>
    <edge id=":nt15_3" function="internal">
        <lane id=":nt15_3_0" index="0" speed="6.51" length="9.03" shape="82.20,479.80 79.75,480.15 78.00,481.20 76.95,482.95 76.60,485.40"/>
    </edge>
    <edge id=":nt15_4" function="internal">
        <lane id=":nt15_4_0" index="0" speed="20.00" length="14.40" shape="82.20,479.80 67.80,479.80"/>
    </edge>
    <edge id=":nt15_5" function="internal">
        <lane id=":nt15_5_0" index="0" speed="8.67" length="16.85" shape="82.20,476.60 78.35,475.85 75.60,473.60 73.95,469.85 73.40,464.60"/>
    </edge>
    <edge id=":nt15_6" function="internal">
        <lane id=":nt15_6_0" index="0" speed="6.51" length="9.03" shape="76.60,464.60 76.95,467.05 78.00,468.80 79.75,469.85 82.20,470.20"/>
    </edge>
    <edge id=":nt15_7" function="internal">
        <lane id=":nt15_7_0" index="0" speed="11.00" length="20.80" shape="76.60,464.60 76.60,485.40"/>
    </edge>
    <edge id=":nt15_8" function="internal">
        <lane id=":nt15_8_0" index="0" speed="8.67" length="7.89" shape="76.60,464.60 76.05,469.85 75.00,472.24"/>
    </edge>
    <edge id=":nt15_13" function="internal">
        <lane id=":nt15_13_0" index="0" speed="8.67" length="8.97" shape="75.00,472.24 74.40,473.60 71.65,475.85 67.80,476.60"/>
    </edge>
    <edge id=":nt15_9" function="internal">
        <lane id=":nt15_9_0" index="0" speed="6.51" length="9.03" shape="67.80,470.20 70.25,469.85 72.00,468.80 73.05,467.05 73.40,464.60"/>
    </edge>
    <edge id=":nt15_10" function="internal">
        <lane id=":nt15_10_0" index="0" speed="20.00" length="14.40" shape="67.80,470.20 82.20,470.20"/>
    </edge>
    <edge id=":nt15_11" function="internal">
        <lane id=":nt15_11_0" index="0" speed="8.67" length="16.85" shape="67.80,473.40 71.65,474.15 74.40,476.40 76.05,480.15 76.60,485.40"/>
    </edge>
    <edge id=":nt16_0" function="internal">
        <lane id=":nt16_0_0" index="0" speed="6.51" length="9.03" shape="273.40,485.40 273.05,482.95 272.00,481.20 270.25,480.15 267.80,479.80"/>
    </edge>
    <edge id=":nt16_1" function="internal">
        <lane id=":nt16_1_0" index="0" speed="11.00" length="20.80" shape="273.40,485.40 273.40,464.60"/>
    </edge>
    <edge id=":nt16_2" function="internal">
        <lane id=":nt16_2_0" index="0" speed="8.67" length="7.89" shape="273.40,485.40 273.95,480.15 275.00,477.76"/>
    </edge>
    <edge id=":nt16_12" function="internal">
        <lane id=":nt16_12_0" index="0" speed="8.67" length="8.97" shape="275.00,477.76 275.60,476.40 278.35,474.15 282.20,473.40"/>
    </edge>
    <edge id=":nt16_3" function="internal">
        <lane id=":nt16_3_0" index="0" speed="6.51" length="9.03" shape="282.20,479.80 279.75,480.15 278.00,481.20 276.95,482.95 276.60,485.40"/>
    </edge>
    <edge id=":nt16_4" function="internal">
        <lane id=":nt16_4_0" index="0" speed="20.00" length="14.40" shape="282.20,479.80 267.80,479.80"/>
    </edge>
    <edge id=":nt16_5" function="internal">
        <lane id=":nt16_5_0" index="0" speed="8.67" length="16.85" shape="282.20,476.60 278.35,475.85 275.60,473.60 273.95,469.85 273.40,464.60"/>
    </edge>
    <edge id=":nt16_6" function="internal">
        <lane id=":nt16_6_0" index="0" speed="6.51" length="9.03" shape="276.60,464.60 276.95,467.05 278.00,468.80 279.75,469.85 282.20,470.20"/>
    </edge>
    <edge id=":nt16_7" function="internal">
        <lane id=":nt16_7_0" index="0" speed="11.00" length="20.80" shape="276.60,464.60 276.60,485.40"/>
    </edge>
    <edge id=":nt16_8" function="internal">
        <lane id=":nt16_8_0" index="0" speed="8.67" length="7.89" shape="276.60,464.60 276.05,469.85 275.00,472.24"/>
    </edge>
    <edge id=":nt16_13" function="internal">
        <lane id=":nt16_13_0" index="0" speed="8.67" length="8.97" shape="275.00,472.24 274.40,473.60 271.65,475.85 267.80,476.60"/>
    </edge>
    <edge id=":nt16_9" function="internal">
        <lane id=":nt16_9_0" index="0" speed="6.51" length="9.03" shape="267.80,470.20 270.25,469.85 272.00,468.80 273.05,467.05 273.40,464.60"/>
    </edge>
    <edge id=":nt16_10" function="internal">
        <lane id=":nt16_10_0" index="0" speed="20.00" length="14.40" shape="267.80,470.20 282.20,470.20"/>
    </edge>
    <edge id=":nt16_11" function="internal">
        <lane id=":nt16_11_0" index="0" speed="8.67" length="16.85" shape="267.80,473.40 271.65,474.15 274.40,476.40 276.05,480.15 276.60,485.40"/>
    </edge>
    <edge id=":nt17_0" function="internal">
        <lane id=":nt17_0_0" index="0" speed="6.51" length="9.03" shape="473.40,485.40 473.05,482.95 472.00,481.20 470.25,480.15 467.80,479.80"/>
    </edge>
    <edge id=":nt17_1" function="internal">
        <lane id=":nt17_1_0" index="0" speed="11.00" length="20.80" shape="473.40,485.40 473.40,464.60"/>
    </edge>
    <edge id=":nt17_2" function="internal">
        <lane id=":nt17_2_0" index="0" speed="8.67" length="7.89" shape="473.40,485.40 473.95,480.15 475.00,477.76"/>
    </edge>
    <edge id=":nt17_12" function="internal">
        <lane id=":nt17_12_0" index="0" speed="8.67" length="8.97" shape="475.00,477.76 475.60,476.40 478.35,474.15 482.20,473.40"/>
    </edge>
    <edge id=":nt17_3" function="internal">
        <lane id=":nt17_3_0" index="0" speed="6.51" length="9.03" shape="482.20,479.80 479.75,480.15 478.00,481.20 476.95,482.95 476.60,485.40"/>
    </edge>
    <edge id=":nt17_4" function="internal">
        <lane id=":nt17_4_0" index="0" speed="20.00" length="14.40" shape="482.20,479.80 467.80,479.80"/>
    </edge>
    <edge id=":nt17_5" function="internal">
        <lane id=":nt17_5_0" index="0" speed="8.67" length="16.85" shape="482.20,476.60 478.35,475.85 475.60,473.60 473.95,469.85 473.40,464.60"/>
    </edge>
    <edge id=":nt17_6" function="internal">
        <lane id=":nt17_6_0" index="0" speed="6.51" length="9.03" shape="476.60,464.60 476.95,467.05 478.00,468.80 479.75,469.85 482.20,470.20"/>
    </edge>
    <edge id=":nt17_7" function="internal">
        <lane id=":nt17_7_0" index="0" speed="11.00" length="20.80" shape="476.60,464.60 476.60,485.40"/>
    </edge>
    <edge id=":nt17_8" function="internal">
        <lane id=":nt17_8_0" index="0" speed="8.67" length="7.89" shape="476.60,464.60 476.05,469.85 475.00,472.24"/>
    </edge>
    <edge id=":nt17_13" function="internal">
        <lane id=":nt17_13_0" index="0" speed="8.67" length="8.97" shape="475.00,472.24 474.40,473.60 471.65,475.85 467.80,476.60"/>
    </edge>
    <edge id=":nt17_9" function="internal">
        <lane id=":nt17_9_0" index="0" speed="6.51" length="9.03" shape="467.80,470.20 470.25,469.85 472.00,468.80 473.05,467.05 473.40,464.60"/>
    </edge>
    <edge id=":nt17_10" function="internal">
        <lane id=":nt17_10_0" index="0" speed="20.00" length="14.40" shape="467.80,470.20 482.20,470.20"/>
    </edge>
    <edge id=":nt17_11" function="internal">