<connections>
  <connection from="np7_nt7" to="nt7_nt14" fromLane="0" toLane="0"/>
  <connection from="nt14_nt7" to="nt7_np7" fromLane="0" toLane="0"/>
  <connection from="nt6_nt7" to="nt7_np8" fromLane="0" toLane="0"/>
  <connection from="np8_nt7" to="nt7_nt6" fromLane="0" toLane="0"/>
  <connection from="np7_nt7" to="nt7_nt6" fromLane="0" toLane="1"/>
  <connection from="nt14_nt7" to="nt7_np8" fromLane="0" toLane="1"/>
  <connection from="nt6_nt7" to="nt7_nt14" fromLane="1" toLane="0"/>
  <connection from="np8_nt7" to="nt7_np7" fromLane="1" toLane="0"/>
  <connection from="np7_nt7" to="nt7_np8" fromLane="0" toLane="0"/>
  <connection from="nt14_nt7" to="nt7_nt6" fromLane="0" toLane="0"/>
  <connection from="nt6_nt7" to="nt7_np7" fromLane="0" toLane="0"/>
  <connection from="np8_nt7" to="nt7_nt14" fromLane="0" toLane="0"/>
  <connection from="nt7_nt14" to="nt14_nt21" fromLane="0" toLane="0"/>
  <connection from="nt21_nt14" to="nt14_nt7" fromLane="0" toLane="0"/>
  <connection from="nt13_nt14" to="nt14_np9" fromLane="0" toLane="0"/>
  <connection from="np9_nt14" to="nt14_nt13" fromLane="0" toLane="0"/>
  <connection from="nt7_nt14" to="nt14_nt13" fromLane="0" toLane="1"/>
  <connection from="nt21_nt14" to="nt14_np9" fromLane="0" toLane="1"/>
  <connection from="nt13_nt14" to="nt14_nt21" fromLane="1" toLane="0"/>
  <connection from="np9_nt14" to="nt14_nt7" fromLane="1" toLane="0"/>
  <connection from="nt7_nt14" to="nt14_np9" fromLane="0" toLane="0"/>
  <connection from="nt21_nt14" to="nt14_nt13" fromLane="0" toLane="0"/>
  <connection from="nt13_nt14" to="nt14_nt7" fromLane="0" toLane="0"/>
  <connection from="np9_nt14" to="nt14_nt21" fromLane="0" toLane="0"/>
  <connection from="nt14_nt21" to="nt21_nt28" fromLane="0" toLane="0"/>
  <connection from="nt28_nt21" to="nt21_nt14" fromLane="0" toLane="0"/>
  <connection from="nt20_nt21" to="nt21_np10" fromLane="0" toLane="0"/>
  <connection from="np10_nt21" to="nt21_nt20" fromLane="0" toLane="0"/>
  <connection from="nt14_nt21" to="nt21_nt20" fromLane="0" toLane="1"/>
  <connection from="nt28_nt21" to="nt21_np10" fromLane="0" toLane="1"/>
  <connection from="nt20_nt21" to="nt21_nt28" fromLane="1" toLane="0"/>
  <connection from="np10_nt21" to="nt21_nt14" fromLane="1" toLane="0"/>
  <connection from="nt14_nt21" to="nt21_np10" fromLane="0" toLane="0"/>
  <connection from="nt28_nt21" to="nt21_nt20" fromLane="0" toLane="0"/>
  <connection from="nt20_nt21" to="nt21_nt14" fromLane="0" toLane="0"/>
  <connection from="np10_nt21" to="nt21_nt28" fromLane="0" toLane="0"/>
  <connection from="nt21_nt28" to="nt28_nt35" fromLane="0" toLane="0"/>
  <connection from="nt35_nt28" to="nt28_nt21" fromLane="0" toLane="0"/>
  <connection from="nt27_nt28" to="nt28_np11" fromLane="0" toLane="0"/>
  <connection from="np11_nt28" to="nt28_nt27" fromLane="0" toLane="0"/>
  <connection from="nt21_nt28" to="nt28_nt27" fromLane="0" toLane="1"/>
  <connection from="nt35_nt28" to="nt28_np11" fromLane="0" toLane="1"/>
  <connection from="nt27_nt28" to="nt28_nt35" fromLane="1" toLane="0"/>
  <connection from="np11_nt28" to="nt28_nt21" fromLane="1" toLane="0"/>
  <connection from="nt21_nt28" to="nt28_np11" fromLane="0" toLane="0"/>
  <connection from="nt35_nt28" to="nt28_nt27" fromLane="0" toLane="0"/>
  <connection from="nt27_nt28" to="nt28_nt21" fromLane="0" toLane="0"/>
  <connection from="np11_nt28" to="nt28_nt35" fromLane="0" toLane="0"/>
  <connection from="nt28_nt35" to="nt35_nt42" fromLane="0" toLane="0"/>
  <connection from="nt42_nt35" to="nt35_nt28" fromLane="0" toLane="0"/>
  <connection from="nt34_nt35" to="nt35_np12" fromLane="0" toLane="0"/>
  <connection from="np12_nt35" to="nt35_nt34" fromLane="0" toLane="0"/>
  <connection from="nt28_nt35" to="nt35_nt34" fromLane="0" toLane="1"/>
  <connection from="nt42_nt35" to="nt35_np12" fromLane="0" toLane="1"/>
  <connection from="nt34_nt35" to="nt35_nt42" fromLane="1" toLane="0"/>
  <connection from="np12_nt35" to="nt35_nt28" fromLane="1" toLane="0"/>
  <connection from="nt28_nt35" to="nt35_np12" fromLane="0" toLane="0"/>
  <connection from="nt42_nt35" to="nt35_nt34" fromLane="0" toLane="0"/>
  <connection from="nt34_nt35" to="nt35_nt28" fromLane="0" toLane="0"/>
  <connection from="np12_nt35" to="nt35_nt42" fromLane="0" toLane="0"/>
  <connection from="nt35_nt42" to="nt42_nt49" fromLane="0" toLane="0"/>
  <connection from="nt49_nt42" to="nt42_nt35" fromLane="0" toLane="0"/>
  <connection from="nt41_nt42" to="nt42_np13" fromLane="0" toLane="0"/>
  <connection from="np13_nt42" to="nt42_nt41" fromLane="0" toLane="0"/>
  <connection from="nt35_nt42" to="nt42_nt41" fromLane="0" toLane="1"/>
  <connection from="nt49_nt42" to="nt42_np13" fromLane="0" toLane="1"/>
  <connection from="nt41_nt42" to="nt42_nt49" fromLane="1" toLane="0"/>
  <connection from="np13_nt42" to="nt42_nt35" fromLane="1" toLane="0"/>
  <connection from="nt35_nt42" to="nt42_np13" fromLane="0" toLane="0"/>
  <connection from="nt49_nt42" to="nt42_nt41" fromLane="0" toLane="0"/>
  <connection from="nt41_nt42" to="nt42_nt35" fromLane="0" toLane="0"/>
  <connection from="np13_nt42" to="nt42_nt49" fromLane="0" toLane="0"/>
  <connection from="nt42_nt49" to="nt49_np15" fromLane="0" toLane="0"/>
  <connection from="np15_nt49" to="nt49_nt42" fromLane="0" toLane="0"/>
  <connection from="nt48_nt49" to="nt49_np14" fromLane="0" toLane="0"/>
  <connection from="np14_nt49" to="nt49_nt48" fromLane="0" toLane="0"/>
  <connection from="nt42_nt49" to="nt49_nt48" fromLane="0" toLane="1"/>
  <connection from="np15_nt49" to="nt49_np14" fromLane="0" toLane="1"/>
  <connection from="nt48_nt49" to="nt49_np15" fromLane="1" toLane="0"/>
  <connection from="np14_nt49" to="nt49_nt42" fromLane="1" toLane="0"/>
  <connection from="nt42_nt49" to="nt49_np14" fromLane="0" toLane="0"/>
  <connection from="np15_nt49" to="nt49_nt48" fromLane="0" toLane="0"/>
  <connection from="nt48_nt49" to="nt49_nt42" fromLane="0" toLane="0"/>
  <connection from="np14_nt49" to="nt49_np15" fromLane="0" toLane="0"/>
  <connection from="nt36_nt43" to="nt43_np21" fromLane="0" toLane="0"/>
  <connection from="np21_nt43" to="nt43_nt36" fromLane="0" toLane="0"/>
  <connection from="np22_nt43" to="nt43_nt44" fromLane="0" toLane="0"/>
  <connection from="nt44_nt43" to="nt43_np22" fromLane="0" toLane="0"/>
  <connection from="nt36_nt43" to="nt43_np22" fromLane="0" toLane="1"/>
  <connection from="np21_nt43" to="nt43_nt44" fromLane="0" toLane="1"/>
  <connection from="np22_nt43" to="nt43_np21" fromLane="1" toLane="0"/>
  <connection from="nt44_nt43" to="nt43_nt36" fromLane="1" toLane="0"/>
  <connection from="nt36_nt43" to="nt43_nt44" fromLane="0" toLane="0"/>
  <connection from="np21_nt43" to="nt43_np22" fromLane="0" toLane="0"/>
  <connection from="np22_nt43" to="nt43_nt36" fromLane="0" toLane="0"/>
  <connection from="nt44_nt43" to="nt43_np21" fromLane="0" toLane="0"/>
  <connection from="nt29_nt36" to="nt36_nt43" fromLane="0" toLane="0"/>
  <connection from="nt43_nt36" to="nt36_nt29" fromLane="0" toLane="0"/>
  <connection from="np23_nt36" to="nt36_nt37" fromLane="0" toLane="0"/>
  <connection from="nt37_nt36" to="nt36_np23" fromLane="0" toLane="0"/>
  <connection from="nt29_nt36" to="nt36_np23" fromLane="0" toLane="1"/>
  <connection from="nt43_nt36" to="nt36_nt37" fromLane="0" toLane="1"/>
  <connection from="np23_nt36" to="nt36_nt43" fromLane="1" toLane="0"/>
  <connection from="nt37_nt36" to="nt36_nt29" fromLane="1" toLane="0"/>
  <connection from="nt29_nt36" to="nt36_nt37" fromLane="0" toLane="0"/>
  <connection from="nt43_nt36" to="nt36_np23" fromLane="0" toLane="0"/>
  <connection from="np23_nt36" to="nt36_nt29" fromLane="0" toLane="0"/>
  <connection from="nt37_nt36" to="nt36_nt43" fromLane="0" toLane="0"/>
  <connection from="nt22_nt29" to="nt29_nt36" fromLane="0" toLane="0"/>
  <connection from="nt36_nt29" to="nt29_nt22" fromLane="0" toLane="0"/>
  <connection from="np24_nt29" to="nt29_nt30" fromLane="0" toLane="0"/>
  <connection from="nt30_nt29" to="nt29_np24" fromLane="0" toLane="0"/>
  <connection from="nt22_nt29" to="nt29_np24" fromLane="0" toLane="1"/>
  <connection from="nt36_nt29" to="nt29_nt30" fromLane="0" toLane="1"/>
  <connection from="np24_nt29" to="nt29_nt36" fromLane="1" toLane="0"/>
  <connection from="nt30_nt29" to="nt29_nt22" fromLane="1" toLane="0"/>
  <connection from="nt22_nt29" to="nt29_nt30" fromLane="0" toLane="0"/>
  <connection from="nt36_nt29" to="nt29_np24" fromLane="0" toLane="0"/>
  <connection from="np24_nt29" to="nt29_nt22" fromLane="0" toLane="0"/>
  <connection from="nt30_nt29" to="nt29_nt36" fromLane="0" toLane="0"/>
  <connection from="nt15_nt22" to="nt22_nt29" fromLane="0" toLane="0"/>
  <connection from="nt29_nt22" to="nt22_nt15" fromLane="0" toLane="0"/>
  <connection from="np25_nt22" to="nt22_nt23" fromLane="0" toLane="0"/>
  <connection from="nt23_nt22" to="nt22_np25" fromLane="0" toLane="0"/>
  <connection from="nt15_nt22" to="nt22_np25" fromLane="0" toLane="1"/>
  <connection from="nt29_nt22" to="nt22_nt23" fromLane="0" toLane="1"/>
  <connection from="np25_nt22" to="nt22_nt29" fromLane="1" toLane="0"/>
  <connection from="nt23_nt22" to="nt22_nt15" fromLane="1" toLane="0"/>
  <connection from="nt15_nt22" to="nt22_nt23" fromLane="0" toLane="0"/>
  <connection from="nt29_nt22" to="nt22_np25" fromLane="0" toLane="0"/>
  <connection from="np25_nt22" to="nt22_nt15" fromLane="0" toLane="0"/>
  <connection from="nt23_nt22" to="nt22_nt29" fromLane="0" toLane="0"/>
  <connection from="nt8_nt15" to="nt15_nt22" fromLane="0" toLane="0"/>
  <connection from="nt22_nt15" to="nt15_nt8" fromLane="0" toLane="0"/>
  <connection from="np26_nt15" to="nt15_nt16" fromLane="0" toLane="0"/>
  <connection from="nt16_nt15" to="nt15_np26" fromLane="0" toLane="0"/>
  <connection from="nt8_nt15" to="nt15_np26" fromLane="0" toLane="1"/>
  <connection from="nt22_nt15" to="nt15_nt16" fromLane="0" toLane="1"/>
  <connection from="np26_nt15" to="nt15_nt22" fromLane="1" toLane="0"/>
  <connection from="nt16_nt15" to="nt15_nt8" fromLane="1" toLane="0"/>
  <connection from="nt8_nt15" to="nt15_nt16" fromLane="0" toLane="0"/>
  <connection from="nt22_nt15" to="nt15_np26" fromLane="0" toLane="0"/>
  <connection from="np26_nt15" to="nt15_nt8" fromLane="0" toLane="0"/>
  <connection from="nt16_nt15" to="nt15_nt22" fromLane="0" toLane="0"/>
  <connection from="nt1_nt8" to="nt8_nt15" fromLane="0" toLane="0"/>
  <connection from="nt15_nt8" to="nt8_nt1" fromLane="0" toLane="0"/>
  <connection from="np27_nt8" to="nt8_nt9" fromLane="0" toLane="0"/>
  <connection from="nt9_nt8" to="nt8_np27" fromLane="0" toLane="0"/>
  <connection from="nt1_nt8" to="nt8_np27" fromLane="0" toLane="1"/>
  <connection from="nt15_nt8" to="nt8_nt9" fromLane="0" toLane="1"/>
  <connection from="np27_nt8" to="nt8_nt15" fromLane="1" toLane="0"/>
  <connection from="nt9_nt8" to="nt8_nt1" fromLane="1" toLane="0"/>
  <connection from="nt1_nt8" to="nt8_nt9" fromLane="0" toLane="0"/>
  <connection from="nt15_nt8" to="nt8_np27" fromLane="0" toLane="0"/>
  <connection from="np27_nt8" to="nt8_nt1" fromLane="0" toLane="0"/>
  <connection from="nt9_nt8" to="nt8_nt15" fromLane="0" toLane="0"/>
  <connection from="np1_nt1" to="nt1_nt8" fromLane="0" toLane="0"/>
  <connection from="nt8_nt1" to="nt1_np1" fromLane="0" toLane="0"/>
  <connection from="np28_nt1" to="nt1_nt2" fromLane="0" toLane="0"/>
  <connection from="nt2_nt1" to="nt1_np28" fromLane="0" toLane="0"/>
  <connection from="np1_nt1" to="nt1_np28" fromLane="0" toLane="1"/>
  <connection from="nt8_nt1" to="nt1_nt2" fromLane="0" toLane="1"/>
  <connection from="np28_nt1" to="nt1_nt8" fromLane="1" toLane="0"/>
  <connection from="nt2_nt1" to="nt1_np1" fromLane="1" toLane="0"/>
  <connection from="np1_nt1" to="nt1_nt2" fromLane="0" toLane="0"/>
  <connection from="nt8_nt1" to="nt1_np28" fromLane="0" toLane="0"/>
  <connection from="np28_nt1" to="nt1_np1" fromLane="0" toLane="0"/>
  <connection from="nt2_nt1" to="nt1_nt8" fromLane="0" toLane="0"/>
  <connection from="np2_nt2" to="nt2_nt9" fromLane="0" toLane="0"/>
  <connection from="nt9_nt2" to="nt2_np2" fromLane="0" toLane="0"/>
  <connection from="nt1_nt2" to="nt2_nt3" fromLane="0" toLane="0"/>
  <connection from="nt3_nt2" to="nt2_nt1" fromLane="0" toLane="0"/>
  <connection from="np2_nt2" to="nt2_nt1" fromLane="0" toLane="1"/>
  <connection from="nt9_nt2" to="nt2_nt3" fromLane="0" toLane="1"/>
  <connection from="nt1_nt2" to="nt2_nt9" fromLane="1" toLane="0"/>
  <connection from="nt3_nt2" to="nt2_np2" fromLane="1" toLane="0"/>
  <connection from="np2_nt2" to="nt2_nt3" fromLane="0" toLane="0"/>
  <connection from="nt9_nt2" to="nt2_nt1" fromLane="0" toLane="0"/>
  <connection from="nt1_nt2" to="nt2_np2" fromLane="0" toLane="0"/>
  <connection from="nt3_nt2" to="nt2_nt9" fromLane="0" toLane="0"/>
  <connection from="np3_nt3" to="nt3_nt10" fromLane="0" toLane="0"/>
  <connection from="nt10_nt3" to="nt3_np3" fromLane="0" toLane="0"/>
  <connection from="nt2_nt3" to="nt3_nt4" fromLane="0" toLane="0"/>
  <connection from="nt4_nt3" to="nt3_nt2" fromLane="0" toLane="0"/>
  <connection from="np3_nt3" to="nt3_nt2" fromLane="0" toLane="1"/>
  <connection from="nt10_nt3" to="nt3_nt4" fromLane="0" toLane="1"/>
  <connection from="nt2_nt3" to="nt3_nt10" fromLane="1" toLane="0"/>
  <connection from="nt4_nt3" to="nt3_np3" fromLane="1" toLane="0"/>
  <connection from="np3_nt3" to="nt3_nt4" fromLane="0" toLane="0"/>
  <connection from="nt10_nt3" to="nt3_nt2" fromLane="0" toLane="0"/>
  <connection from="nt2_nt3" to="nt3_np3" fromLane="0" toLane="0"/>
  <connection from="nt4_nt3" to="nt3_nt10" fromLane="0" toLane="0"/>
  <connection from="np4_nt4" to="nt4_nt11" fromLane="0" toLane="0"/>
  <connection from="nt11_nt4" to="nt4_np4" fromLane="0" toLane="0"/>
  <connection from="nt3_nt4" to="nt4_nt5" fromLane="0" toLane="0"/>
  <connection from="nt5_nt4" to="nt4_nt3" fromLane="0" toLane="0"/>
  <connection from="np4_nt4" to="nt4_nt3" fromLane="0" toLane="1"/>
  <connection from="nt11_nt4" to="nt4_nt5" fromLane="0" toLane="1"/>
  <connection from="nt3_nt4" to="nt4_nt11" fromLane="1" toLane="0"/>
  <connection from="nt5_nt4" to="nt4_np4" fromLane="1" toLane="0"/>
  <connection from="np4_nt4" to="nt4_nt5" fromLane="0" toLane="0"/>
  <connection from="nt11_nt4" to="nt4_nt3" fromLane="0" toLane="0"/>
  <connection from="nt3_nt4" to="nt4_np4" fromLane="0" toLane="0"/>
  <connection from="nt5_nt4" to="nt4_nt11" fromLane="0" toLane="0"/>
  <connection from="np5_nt5" to="nt5_nt12" fromLane="0" toLane="0"/>
  <connection from="nt12_nt5" to="nt5_np5" fromLane="0" toLane="0"/>
  <connection from="nt4_nt5" to="nt5_nt6" fromLane="0" toLane="0"/>
  <connection from="nt6_nt5" to="nt5_nt4" fromLane="0" toLane="0"/>
  <connection from="np5_nt5" to="nt5_nt4" fromLane="0" toLane="1"/>
  <connection from="nt12_nt5" to="nt5_nt6" fromLane="0" toLane="1"/>
  <connection from="nt4_nt5" to="nt5_nt12" fromLane="1" toLane="0"/>
  <connection from="nt6_nt5" to="nt5_np5" fromLane="1" toLane="0"/>
  <connection from="np5_nt5" to="nt5_nt6" fromLane="0" toLane="0"/>
  <connection from="nt12_nt5" to="nt5_nt4" fromLane="0" toLane="0"/>
  <connection from="nt4_nt5" to="nt5_np5" fromLane="0" toLane="0"/>
  <connection from="nt6_nt5" to="nt5_nt12" fromLane="0" toLane="0"/>
  <connection from="np6_nt6" to="nt6_nt13" fromLane="0" toLane="0"/>
  <connection from="nt13_nt6" to="nt6_np6" fromLane="0" toLane="0"/>
  <connection from="nt5_nt6" to="nt6_nt7" fromLane="0" toLane="0"/>
  <connection from="nt7_nt6" to="nt6_nt5" fromLane="0" toLane="0"/>
  <connection from="np6_nt6" to="nt6_nt5" fromLane="0" toLane="1"/>
  <connection from="nt13_nt6" to="nt6_nt7" fromLane="0" toLane="1"/>
  <connection from="nt5_nt6" to="nt6_nt13" fromLane="1" toLane="0"/>
  <connection from="nt7_nt6" to="nt6_np6" fromLane="1" toLane="0"/>
  <connection from="np6_nt6" to="nt6_nt7" fromLane="0" toLane="0"/>
  <connection from="nt13_nt6" to="nt6_nt5" fromLane="0" toLane="0"/>
  <connection from="nt5_nt6" to="nt6_np6" fromLane="0" toLane="0"/>
  <connection from="nt7_nt6" to="nt6_nt13" fromLane="0" toLane="0"/>
  <connection from="nt41_nt48" to="nt48_np16" fromLane="0" toLane="0"/>
  <connection from="np16_nt48" to="nt48_nt41" fromLane="0" toLane="0"/>
  <connection from="nt47_nt48" to="nt48_nt49" fromLane="0" toLane="0"/>
  <connection from="nt49_nt48" to="nt48_nt47" fromLane="0" toLane="0"/>
  <connection from="nt41_nt48" to="nt48_nt47" fromLane="0" toLane="1"/>
  <connection from="np16_nt48" to="nt48_nt49" fromLane="0" toLane="1"/>
  <connection from="nt47_nt48" to="nt48_np16" fromLane="1" toLane="0"/>
  <connection from="nt49_nt48" to="nt48_nt41" fromLane="1" toLane="0"/>
  <connection from="nt41_nt48" to="nt48_nt49" fromLane="0" toLane="0"/>
  <connection from="np16_nt48" to="nt48_nt47" fromLane="0" toLane="0"/>
  <connection from="nt47_nt48" to="nt48_nt41" fromLane="0" toLane="0"/>
  <connection from="nt49_nt48" to="nt48_np16" fromLane="0" toLane="0"/>
  <connection from="nt40_nt47" to="nt47_np17" fromLane="0" toLane="0"/>
  <connection from="np17_nt47" to="nt47_nt40" fromLane="0" toLane="0"/>
  <connection from="nt46_nt47" to="nt47_nt48" fromLane="0" toLane="0"/>
  <connection from="nt48_nt47" to="nt47_nt46" fromLane="0" toLane="0"/>
  <connection from="nt40_nt47" to="nt47_nt46" fromLane="0" toLane="1"/>
  <connection from="np17_nt47" to="nt47_nt48" fromLane="0" toLane="1"/>
  <connection from="nt46_nt47" to="nt47_np17" fromLane="1" toLane="0"/>
  <connection from="nt48_nt47" to="nt47_nt40" fromLane="1" toLane="0"/>
  <connection from="nt40_nt47" to="nt47_nt48" fromLane="0" toLane="0"/>
  <connection from="np17_nt47" to="nt47_nt46" fromLane="0" toLane="0"/>
  <connection from="nt46_nt47" to="nt47_nt40" fromLane="0" toLane="0"/>
  <connection from="nt48_nt47" to="nt47_np17" fromLane="0" toLane="0"/>
  <connection from="nt39_nt46" to="nt46_np18" fromLane="0" toLane="0"/>
  <connection from="np18_nt46" to="nt46_nt39" fromLane="0" toLane="0"/>
  <connection from="nt45_nt46" to="nt46_nt47" fromLane="0" toLane="0"/>
  <connection from="nt47_nt46" to="nt46_nt45" fromLane="0" toLane="0"/>
  <connection from="nt39_nt46" to="nt46_nt45" fromLane="0" toLane="1"/>
  <connection from="np18_nt46" to="nt46_nt47" fromLane="0" toLane="1"/>
  <connection from="nt45_nt46" to="nt46_np18" fromLane="1" toLane="0"/>
  <connection from="nt47_nt46" to="nt46_nt39" fromLane="1" toLane="0"/>
  <connection from="nt39_nt46" to="nt46_nt47" fromLane="0" toLane="0"/>
  <connection from="np18_nt46" to="nt46_nt45" fromLane="0" toLane="0"/>
  <connection from="nt45_nt46" to="nt46_nt39" fromLane="0" toLane="0"/>
  <connection from="nt47_nt46" to="nt46_np18" fromLane="0" toLane="0"/>
  <connection from="nt38_nt45" to="nt45_np19" fromLane="0" toLane="0"/>
  <connection from="np19_nt45" to="nt45_nt38" fromLane="0" toLane="0"/>
  <connection from="nt44_nt45" to="nt45_nt46" fromLane="0" toLane="0"/>
  <connection from="nt46_nt45" to="nt45_nt44" fromLane="0" toLane="0"/>
  <connection from="nt38_nt45" to="nt45_nt44" fromLane="0" toLane="1"/>
  <connection from="np19_nt45" to="nt45_nt46" fromLane="0" toLane="1"/>
  <connection from="nt44_nt45" to="nt45_np19" fromLane="1" toLane="0"/>
  <connection from="nt46_nt45" to="nt45_nt38" fromLane="1" toLane="0"/>
  <connection from="nt38_nt45" to="nt45_nt46" fromLane="0" toLane="0"/>
  <connection from="np19_nt45" to="nt45_nt44" fromLane="0" toLane="0"/>
  <connection from="nt44_nt45" to="nt45_nt38" fromLane="0" toLane="0"/>
  <connection from="nt46_nt45" to="nt45_np19" fromLane="0" toLane="0"/>
  <connection from="nt37_nt44" to="nt44_np20" fromLane="0" toLane="0"/>
  <connection from="np20_nt44" to="nt44_nt37" fromLane="0" toLane="0"/>
  <connection from="nt43_nt44" to="nt44_nt45" fromLane="0" toLane="0"/>
  <connection from="nt45_nt44" to="nt44_nt43" fromLane="0" toLane="0"/>
  <connection from="nt37_nt44" to="nt44_nt43" fromLane="0" toLane="1"/>
  <connection from="np20_nt44" to="nt44_nt45" fromLane="0" toLane="1"/>
  <connection from="nt43_nt44" to="nt44_np20" fromLane="1" toLane="0"/>
  <connection from="nt45_nt44" to="nt44_nt37" fromLane="1" toLane="0"/>
  <connection from="nt37_nt44" to="nt44_nt45" fromLane="0" toLane="0"/>
  <connection from="np20_nt44" to="nt44_nt43" fromLane="0" toLane="0"/>
  <connection from="nt43_nt44" to="nt44_nt37" fromLane="0" toLane="0"/>
  <connection from="nt45_nt44" to="nt44_np20" fromLane="0" toLane="0"/>
  <connection from="nt2_nt9" to="nt9_nt16" fromLane="0" toLane="0"/>
  <connection from="nt16_nt9" to="nt9_nt2" fromLane="0" toLane="0"/>
  <connection from="nt8_nt9" to="nt9_nt10" fromLane="0" toLane="0"/>
  <connection from="nt10_nt9" to="nt9_nt8" fromLane="0" toLane="0"/>
  <connection from="nt2_nt9" to="nt9_nt8" fromLane="0" toLane="1"/>
  <connection from="nt16_nt9" to="nt9_nt10" fromLane="0" toLane="1"/>
  <connection from="nt8_nt9" to="nt9_nt16" fromLane="1" toLane="0"/>
  <connection from="nt10_nt9" to="nt9_nt2" fromLane="1" toLane="0"/>
  <connection from="nt2_nt9" to="nt9_nt10" fromLane="0" toLane="0"/>
  <connection from="nt16_nt9" to="nt9_nt8" fromLane="0" toLane="0"/>
  <connection from="nt8_nt9" to="nt9_nt2" fromLane="0" toLane="0"/>
  <connection from="nt10_nt9" to="nt9_nt16" fromLane="0" toLane="0"/>
  <connection from="nt3_nt10" to="nt10_nt17" fromLane="0" toLane="0"/>
  <connection from="nt17_nt10" to="nt10_nt3" fromLane="0" toLane="0"/>
  <connection from="nt9_nt10" to="nt10_nt11" fromLane="0" toLane="0"/>
  <connection from="nt11_nt10" to="nt10_nt9" fromLane="0" toLane="0"/>
  <connection from="nt3_nt10" to="nt10_nt9" fromLane="0" toLane="1"/>
  <connection from="nt17_nt10" to="nt10_nt11" fromLane="0" toLane="1"/>
  <connection from="nt9_nt10" to="nt10_nt17" fromLane="1" toLane="0"/>
  <connection from="nt11_nt10" to="nt10_nt3" fromLane="1" toLane="0"/>
  <connection from="nt3_nt10" to="nt10_nt11" fromLane="0" toLane="0"/>
  <connection from="nt17_nt10" to="nt10_nt9" fromLane="0" toLane="0"/>
  <connection from="nt9_nt10" to="nt10_nt3" fromLane="0" toLane="0"/>
  <connection from="nt11_nt10" to="nt10_nt17" fromLane="0" toLane="0"/>
  <connection from="nt4_nt11" to="nt11_nt18" fromLane="0" toLane="0"/>
  <connection from="nt18_nt11" to="nt11_nt4" fromLane="0" toLane="0"/>
  <connection from="nt10_nt11" to="nt11_nt12" fromLane="0" toLane="0"/>
  <connection from="nt12_nt11" to="nt11_nt10" fromLane="0" toLane="0"/>
  <connection from="nt4_nt11" to="nt11_nt10" fromLane="0" toLane="1"/>
  <connection from="nt18_nt11" to="nt11_nt12" fromLane="0" toLane="1"/>
  <connection from="nt10_nt11" to="nt11_nt18" fromLane="1" toLane="0"/>
  <connection from="nt12_nt11" to="nt11_nt4" fromLane="1" toLane="0"/>
  <connection from="nt4_nt11" to="nt11_nt12" fromLane="0" toLane="0"/>
  <connection from="nt18_nt11" to="nt11_nt10" fromLane="0" toLane="0"/>
  <connection from="nt10_nt11" to="nt11_nt4" fromLane="0" toLane="0"/>
  <connection from="nt12_nt11" to="nt11_nt18" fromLane="0" toLane="0"/>
  <connection from="nt5_nt12" to="nt12_nt19" fromLane="0" toLane="0"/>
  <connection from="nt19_nt12" to="nt12_nt5" fromLane="0" toLane="0"/>
  <connection from="nt11_nt12" to="nt12_nt13" fromLane="0" toLane="0"/>
  <connection from="nt13_nt12" to="nt12_nt11" fromLane="0" toLane="0"/>
  <connection from="nt5_nt12" to="nt12_nt11" fromLane="0" toLane="1"/>
  <connection from="nt19_nt12" to="nt12_nt13" fromLane="0" toLane="1"/>
  <connection from="nt11_nt12" to="nt12_nt19" fromLane="1" toLane="0"/>
  <connection from="nt13_nt12" to="nt12_nt5" fromLane="1" toLane="0"/>
  <connection from="nt5_nt12" to="nt12_nt13" fromLane="0" toLane="0"/>
  <connection from="nt19_nt12" to="nt12_nt11" fromLane="0" toLane="0"/>
  <connection from="nt11_nt12" to="nt12_nt5" fromLane="0" toLane="0"/>
  <connection from="nt13_nt12" to="nt12_nt19" fromLane="0" toLane="0"/>
  <connection from="nt6_nt13" to="nt13_nt20" fromLane="0" toLane="0"/>
  <connection from="nt20_nt13" to="nt13_nt6" fromLane="0" toLane="0"/>
  <connection from="nt12_nt13" to="nt13_nt14" fromLane="0" toLane="0"/>
  <connection from="nt14_nt13" to="nt13_nt12" fromLane="0" toLane="0"/>
  <connection from="nt6_nt13" to="nt13_nt12" fromLane="0" toLane="1"/>
  <connection from="nt20_nt13" to="nt13_nt14" fromLane="0" toLane="1"/>
  <connection from="nt12_nt13" to="nt13_nt20" fromLane="1" toLane="0"/>
  <connection from="nt14_nt13" to="nt13_nt6" fromLane="1" toLane="0"/>
  <connection from="nt6_nt13" to="nt13_nt14" fromLane="0" toLane="0"/>
  <connection from="nt20_nt13" to="nt13_nt12" fromLane="0" toLane="0"/>
  <connection from="nt12_nt13" to="nt13_nt6" fromLane="0" toLane="0"/>
  <connection from="nt14_nt13" to="nt13_nt20" fromLane="0" toLane="0"/>
  <connection from="nt9_nt16" to="nt16_nt23" fromLane="0" toLane="0"/>
  <connection from="nt23_nt16" to="nt16_nt9" fromLane="0" toLane="0"/>
  <connection from="nt15_nt16" to="nt16_nt17" fromLane="0" toLane="0"/>
  <connection from="nt17_nt16" to="nt16_nt15" fromLane="0" toLane="0"/>
  <connection from="nt9_nt16" to="nt16_nt15" fromLane="0" toLane="1"/>
  <connection from="nt23_nt16" to="nt16_nt17" fromLane="0" toLane="1"/>
  <connection from="nt15_nt16" to="nt16_nt23" fromLane="1" toLane="0"/>
  <connection from="nt17_nt16" to="nt16_nt9" fromLane="1" toLane="0"/>
  <connection from="nt9_nt16" to="nt16_nt17" fromLane="0" toLane="0"/>
  <connection from="nt23_nt16" to="nt16_nt15" fromLane="0" toLane="0"/>
  <connection from="nt15_nt16" to="nt16_nt9" fromLane="0" toLane="0"/>
  <connection from="nt17_nt16" to="nt16_nt23" fromLane="0" toLane="0"/>
  <connection from="nt10_nt17" to="nt17_nt24" fromLane="0" toLane="0"/>
  <connection from="nt24_nt17" to="nt17_nt10" fromLane="0" toLane="0"/>
  <connection from="nt16_nt17" to="nt17_nt18" fromLane="0" toLane="0"/>
  <connection from="nt18_nt17" to="nt17_nt16" fromLane="0" toLane="0"/>
  <connection from="nt10_nt17" to="nt17_nt16" fromLane="0" toLane="1"/>
  <connection from="nt24_nt17" to="nt17_nt18" fromLane="0" toLane="1"/>
  <connection from="nt16_nt17" to="nt17_nt24" fromLane="1" toLane="0"/>
  <connection from="nt18_nt17" to="nt17_nt10" fromLane="1" toLane="0"/>
  <connection from="nt10_nt17" to="nt17_nt18" fromLane="0" toLane="0"/>
  <connection from="nt24_nt17" to="nt17_nt16" fromLane="0" toLane="0"/>
  <connection from="nt16_nt17" to="nt17_nt10" fromLane="0" toLane="0"/>
  <connection from="nt18_nt17" to="nt17_nt24" fromLane="0" toLane="0"/>
  <connection from="nt11_nt18" to="nt18_nt25" fromLane="0" toLane="0"/>
  <connection from="nt25_nt18" to="nt18_nt11" fromLane="0" toLane="0"/>
  <connection from="nt17_nt18" to="nt18_nt19" fromLane="0" toLane="0"/>
  <connection from="nt19_nt18" to="nt18_nt17" fromLane="0" toLane="0"/>
  <connection from="nt11_nt18" to="nt18_nt17" fromLane="0" toLane="1"/>
  <connection from="nt25_nt18" to="nt18_nt19" fromLane="0" toLane="1"/>
  <connection from="nt17_nt18" to="nt18_nt25" fromLane="1" toLane="0"/>
  <connection from="nt19_nt18" to="nt18_nt11" fromLane="1" toLane="0"/>
  <connection from="nt11_nt18" to="nt18_nt19" fromLane="0" toLane="0"/>
  <connection from="nt25_nt18" to="nt18_nt17" fromLane="0" toLane="0"/>
  <connection from="nt17_nt18" to="nt18_nt11" fromLane="0" toLane="0"/>
  <connection from="nt19_nt18" to="nt18_nt25" fromLane="0" toLane="0"/>
  <connection from="nt12_nt19" to="nt19_nt26" fromLane="0" toLane="0"/>
  <connection from="nt26_nt19" to="nt19_nt12" fromLane="0" toLane="0"/>
  <connection from="nt18_nt19" to="nt19_nt20" fromLane="0" toLane="0"/>
  <connection from="nt20_nt19" to="nt19_nt18" fromLane="0" toLane="0"/>
  <connection from="nt12_nt19" to="nt19_nt18" fromLane="0" toLane="1"/>
  <connection from="nt26_nt19" to="nt19_nt20" fromLane="0" toLane="1"/>
  <connection from="nt18_nt19" to="nt19_nt26" fromLane="1" toLane="0"/>
  <connection from="nt20_nt19" to="nt19_nt12" fromLane="1" toLane="0"/>
  <connection from="nt12_nt19" to="nt19_nt20" fromLane="0" toLane="0"/>
  <connection from="nt26_nt19" to="nt19_nt18" fromLane="0" toLane="0"/>
  <connection from="nt18_nt19" to="nt19_nt12" fromLane="0" toLane="0"/>
  <connection from="nt20_nt19" to="nt19_nt26" fromLane="0" toLane="0"/>
  <connection from="nt13_nt20" to="nt20_nt27" fromLane="0" toLane="0"/>
  <connection from="nt27_nt20" to="nt20_nt13" fromLane="0" toLane="0"/>
  <connection from="nt19_nt20" to="nt20_nt21" fromLane="0" toLane="0"/>
  <connection from="nt21_nt20" to="nt20_nt19" fromLane="0" toLane="0"/>
  <connection from="nt13_nt20" to="nt20_nt19" fromLane="0" toLane="1"/>
  <connection from="nt27_nt20" to="nt20_nt21" fromLane="0" toLane="1"/>
  <connection from="nt19_nt20" to="nt20_nt27" fromLane="1" toLane="0"/>
  <connection from="nt21_nt20" to="nt20_nt13" fromLane="1" toLane="0"/>
  <connection from="nt13_nt20" to="nt20_nt21" fromLane="0" toLane="0"/>
  <connection from="nt27_nt20" to="nt20_nt19" fromLane="0" toLane="0"/>
  <connection from="nt19_nt20" to="nt20_nt13" fromLane="0" toLane="0"/>
  <connection from="nt21_nt20" to="nt20_nt27" fromLane="0" toLane="0"/>
  <connection from="nt16_nt23" to="nt23_nt30" fromLane="0" toLane="0"/>
  <connection from="nt30_nt23" to="nt23_nt16" fromLane="0" toLane="0"/>
  <connection from="nt22_nt23" to="nt23_nt24" fromLane="0" toLane="0"/>
  <connection from="nt24_nt23" to="nt23_nt22" fromLane="0" toLane="0"/>
  <connection from="nt16_nt23" to="nt23_nt22" fromLane="0" toLane="1"/>
  <connection from="nt30_nt23" to="nt23_nt24" fromLane="0" toLane="1"/>
  <connection from="nt22_nt23" to="nt23_nt30" fromLane="1" toLane="0"/>
  <connection from="nt24_nt23" to="nt23_nt16" fromLane="1" toLane="0"/>
  <connection from="nt16_nt23" to="nt23_nt24" fromLane="0" toLane="0"/>
  <connection from="nt30_nt23" to="nt23_nt22" fromLane="0" toLane="0"/>
  <connection from="nt22_nt23" to="nt23_nt16" fromLane="0" toLane="0"/>
  <connection from="nt24_nt23" to="nt23_nt30" fromLane="0" toLane="0"/>
  <connection from="nt17_nt24" to="nt24_nt31" fromLane="0" toLane="0"/>
  <connection from="nt31_nt24" to="nt24_nt17" fromLane="0" toLane="0"/>