<edges>
  <edge id="nt7_np8" from="nt7" to="np8" type="a"/>
  <edge id="np8_nt7" from="np8" to="nt7" type="a"/>
  <edge id="nt14_np9" from="nt14" to="np9" type="a"/>
  <edge id="np9_nt14" from="np9" to="nt14" type="a"/>
  <edge id="nt21_np10" from="nt21" to="np10" type="a"/>
  <edge id="np10_nt21" from="np10" to="nt21" type="a"/>
  <edge id="nt28_np11" from="nt28" to="np11" type="a"/>
  <edge id="np11_nt28" from="np11" to="nt28" type="a"/>
  <edge id="nt35_np12" from="nt35" to="np12" type="a"/>
  <edge id="np12_nt35" from="np12" to="nt35" type="a"/>
  <edge id="nt42_np13" from="nt42" to="np13" type="a"/>
  <edge id="np13_nt42" from="np13" to="nt42" type="a"/>
  <edge id="nt49_np14" from="nt49" to="np14" type="a"/>
  <edge id="np14_nt49" from="np14" to="nt49" type="a"/>
  <edge id="nt43_np22" from="nt43" to="np22" type="a"/>
  <edge id="np22_nt43" from="np22" to="nt43" type="a"/>
  <edge id="nt36_np23" from="nt36" to="np23" type="a"/>
  <edge id="np23_nt36" from="np23" to="nt36" type="a"/>
  <edge id="nt29_np24" from="nt29" to="np24" type="a"/>
  <edge id="np24_nt29" from="np24" to="nt29" type="a"/>
  <edge id="nt22_np25" from="nt22" to="np25" type="a"/>
  <edge id="np25_nt22" from="np25" to="nt22" type="a"/>
  <edge id="nt15_np26" from="nt15" to="np26" type="a"/>
  <edge id="np26_nt15" from="np26" to="nt15" type="a"/>
  <edge id="nt8_np27" from="nt8" to="np27" type="a"/>
  <edge id="np27_nt8" from="np27" to="nt8" type="a"/>
  <edge id="nt1_np28" from="nt1" to="np28" type="a"/>
  <edge id="np28_nt1" from="np28" to="nt1" type="a"/>
  <edge id="nt1_np1" from="nt1" to="np1" type="b"/>
  <edge id="np1_nt1" from="np1" to="nt1" type="b"/>
  <edge id="nt2_np2" from="nt2" to="np2" type="b"/>
  <edge id="np2_nt2" from="np2" to="nt2" type="b"/>
  <edge id="nt3_np3" from="nt3" to="np3" type="b"/>
  <edge id="np3_nt3" from="np3" to="nt3" type="b"/>
  <edge id="nt4_np4" from="nt4" to="np4" type="b"/>
  <edge id="np4_nt4" from="np4" to="nt4" type="b"/>
  <edge id="nt5_np5" from="nt5" to="np5" type="b"/>
  <edge id="np5_nt5" from="np5" to="nt5" type="b"/>
  <edge id="nt6_np6" from="nt6" to="np6" type="b"/>
  <edge id="np6_nt6" from="np6" to="nt6" type="b"/>
  <edge id="nt7_np7" from="nt7" to="np7" type="b"/>
  <edge id="np7_nt7" from="np7" to="nt7" type="b"/>
  <edge id="nt49_np15" from="nt49" to="np15" type="b"/>
  <edge id="np15_nt49" from="np15" to="nt49" type="b"/>
  <edge id="nt48_np16" from="nt48" to="np16" type="b"/>
  <edge id="np16_nt48" from="np16" to="nt48" type="b"/>
  <edge id="nt47_np17" from="nt47" to="np17" type="b"/>
  <edge id="np17_nt47" from="np17" to="nt47" type="b"/>
  <edge id="nt46_np18" from="nt46" to="np18" type="b"/>
  <edge id="np18_nt46" from="np18" to="nt46" type="b"/>
  <edge id="nt45_np19" from="nt45" to="np19" type="b"/>
  <edge id="np19_nt45" from="np19" to="nt45" type="b"/>
  <edge id="nt44_np20" from="nt44" to="np20" type="b"/>
  <edge id="np20_nt44" from="np20" to="nt44" type="b"/>
  <edge id="nt43_np21" from="nt43" to="np21" type="b"/>
  <edge id="np21_nt43" from="np21" to="nt43" type="b"/>
  <edge id="nt1_nt2" from="nt1" to="nt2" type="a"/>
  <edge id="nt2_nt1" from="nt2" to="nt1" type="a"/>
  <edge id="nt2_nt3" from="nt2" to="nt3" type="a"/>
  <edge id="nt3_nt2" from="nt3" to="nt2" type="a"/>
  <edge id="nt3_nt4" from="nt3" to="nt4" type="a"/>
  <edge id="nt4_nt3" from="nt4" to="nt3" type="a"/>
  <edge id="nt4_nt5" from="nt4" to="nt5" type="a"/>
  <edge id="nt5_nt4" from="nt5" to="nt4" type="a"/>
  <edge id="nt5_nt6" from="nt5" to="nt6" type="a"/>
  <edge id="nt6_nt5" from="nt6" to="nt5" type="a"/>
  <edge id="nt6_nt7" from="nt6" to="nt7" type="a"/>
  <edge id="nt7_nt6" from="nt7" to="nt6" type="a"/>
  <edge id="nt8_nt9" from="nt8" to="nt9" type="a"/>
  <edge id="nt9_nt8" from="nt9" to="nt8" type="a"/>
  <edge id="nt9_nt10" from="nt9" to="nt10" type="a"/>
  <edge id="nt10_nt9" from="nt10" to="nt9" type="a"/>
  <edge id="nt10_nt11" from="nt10" to="nt11" type="a"/>
  <edge id="nt11_nt10" from="nt11" to="nt10" type="a"/>
  <edge id="nt11_nt12" from="nt11" to="nt12" type="a"/>
  <edge id="nt12_nt11" from="nt12" to="nt11" type="a"/>
  <edge id="nt12_nt13" from="nt12" to="nt13" type="a"/>
  <edge id="nt13_nt12" from="nt13" to="nt12" type="a"/>
  <edge id="nt13_nt14" from="nt13" to="nt14" type="a"/>
  <edge id="nt14_nt13" from="nt14" to="nt13" type="a"/>
  <edge id="nt15_nt16" from="nt15" to="nt16" type="a"/>
  <edge id="nt16_nt15" from="nt16" to="nt15" type="a"/>
  <edge id="nt16_nt17" from="nt16" to="nt17" type="a"/>
  <edge id="nt17_nt16" from="nt17" to="nt16" type="a"/>
  <edge id="nt17_nt18" from="nt17" to="nt18" type="a"/>
  <edge id="nt18_nt17" from="nt18" to="nt17" type="a"/>
  <edge id="nt18_nt19" from="nt18" to="nt19" type="a"/>
  <edge id="nt19_nt18" from="nt19" to="nt18" type="a"/>
  <edge id="nt19_nt20" from="nt19" to="nt20" type="a"/>
  <edge id="nt20_nt19" from="nt20" to="nt19" type="a"/>
  <edge id="nt20_nt21" from="nt20" to="nt21" type="a"/>
  <edge id="nt21_nt20" from="nt21" to="nt20" type="a"/>
  <edge id="nt22_nt23" from="nt22" to="nt23" type="a"/>
  <edge id="nt23_nt22" from="nt23" to="nt22" type="a"/>
  <edge id="nt23_nt24" from="nt23" to="nt24" type="a"/>
  <edge id="nt24_nt23" from="nt24" to="nt23" type="a"/>
  <edge id="nt24_nt25" from="nt24" to="nt25" type="a"/>
  <edge id="nt25_nt24" from="nt25" to="nt24" type="a"/>
  <edge id="nt25_nt26" from="nt25" to="nt26" type="a"/>
  <edge id="nt26_nt25" from="nt26" to="nt25" type="a"/>
  <edge id="nt26_nt27" from="nt26" to="nt27" type="a"/>
  <edge id="nt27_nt26" from="nt27" to="nt26" type="a"/>
  <edge id="nt27_nt28" from="nt27" to="nt28" type="a"/>
  <edge id="nt28_nt27" from="nt28" to="nt27" type="a"/>
  <edge id="nt29_nt30" from="nt29" to="nt30" type="a"/>
  <edge id="nt30_nt29" from="nt30" to="nt29" type="a"/>
  <edge id="nt30_nt31" from="nt30" to="nt31" type="a"/>
  <edge id="nt31_nt30" from="nt31" to="nt30" type="a"/>
  <edge id="nt31_nt32" from="nt31" to="nt32" type="a"/>
  <edge id="nt32_nt31" from="nt32" to="nt31" type="a"/>
  <edge id="nt32_nt33" from="nt32" to="nt33" type="a"/>
  <edge id="nt33_nt32" from="nt33" to="nt32" type="a"/>
  <edge id="nt33_nt34" from="nt33" to="nt34" type="a"/>
  <edge id="nt34_nt33" from="nt34" to="nt33" type="a"/>
  <edge id="nt34_nt35" from="nt34" to="nt35" type="a"/>
  <edge id="nt35_nt34" from="nt35" to="nt34" type="a"/>
  <edge id="nt36_nt37" from="nt36" to="nt37" type="a"/>
  <edge id="nt37_nt36" from="nt37" to="nt36" type="a"/>
  <edge id="nt37_nt38" from="nt37" to="nt38" type="a"/>
  <edge id="nt38_nt37" from="nt38" to="nt37" type="a"/>
  <edge id="nt38_nt39" from="nt38" to="nt39" type="a"/>
  <edge id="nt39_nt38" from="nt39" to="nt38" type="a"/>
  <edge id="nt39_nt40" from="nt39" to="nt40" type="a"/>
  <edge id="nt40_nt39" from="nt40" to="nt39" type="a"/>
  <edge id="nt40_nt41" from="nt40" to="nt41" type="a"/>
  <edge id="nt41_nt40" from="nt41" to="nt40" type="a"/>
  <edge id="nt41_nt42" from="nt41" to="nt42" type="a"/>
  <edge id="nt42_nt41" from="nt42" to="nt41" type="a"/>
  <edge id="nt43_nt44" from="nt43" to="nt44" type="a"/>
  <edge id="nt44_nt43" from="nt44" to="nt43" type="a"/>
  <edge id="nt44_nt45" from="nt44" to="nt45" type="a"/>
  <edge id="nt45_nt44" from="nt45" to="nt44" type="a"/>
  <edge id="nt45_nt46" from="nt45" to="nt46" type="a"/>
  <edge id="nt46_nt45" from="nt46" to="nt45" type="a"/>
  <edge id="nt46_nt47" from="nt46" to="nt47" type="a"/>
  <edge id="nt47_nt46" from="nt47" to="nt46" type="a"/>
  <edge id="nt47_nt48" from="nt47" to="nt48" type="a"/>
  <edge id="nt48_nt47" from="nt48" to="nt47" type="a"/>
  <edge id="nt48_nt49" from="nt48" to="nt49" type="a"/>
  <edge id="nt49_nt48" from="nt49" to="nt48" type="a"/>
  <edge id="nt1_nt8" from="nt1" to="nt8" type="b"/>
  <edge id="nt8_nt1" from="nt8" to="nt1" type="b"/>
  <edge id="nt8_nt15" from="nt8" to="nt15" type="b"/>
  <edge id="nt15_nt8" from="nt15" to="nt8" type="b"/>
  <edge id="nt15_nt22" from="nt15" to="nt22" type="b"/>
  <edge id="nt22_nt15" from="nt22" to="nt15" type="b"/>
  <edge id="nt22_nt29" from="nt22" to="nt29" type="b"/>
  <edge id="nt29_nt22" from="nt29" to="nt22" type="b"/>
  <edge id="nt29_nt36" from="nt29" to="nt36" type="b"/>
  <edge id="nt36_nt29" from="nt36" to="nt29" type="b"/>
  <edge id="nt36_nt43" from="nt36" to="nt43" type="b"/>
  <edge id="nt43_nt36" from="nt43" to="nt36" type="b"/>
  <edge id="nt2_nt9" from="nt2" to="nt9" type="b"/>
  <edge id="nt9_nt2" from="nt9" to="nt2" type="b"/>
  <edge id="nt9_nt16" from="nt9" to="nt16" type="b"/>
  <edge id="nt16_nt9" from="nt16" to="nt9" type="b"/>
  <edge id="nt16_nt23" from="nt16" to="nt23" type="b"/>
  <edge id="nt23_nt16" from="nt23" to="nt16" type="b"/>
  <edge id="nt23_nt30" from="nt23" to="nt30" type="b"/>
  <edge id="nt30_nt23" from="nt30" to="nt23" type="b"/>
  <edge id="nt30_nt37" from="nt30" to="nt37" type="b"/>
  <edge id="nt37_nt30" from="nt37" to="nt30" type="b"/>
  <edge id="nt37_nt44" from="nt37" to="nt44" type="b"/>
  <edge id="nt44_nt37" from="nt44" to="nt37" type="b"/>
  <edge id="nt3_nt10" from="nt3" to="nt10" type="b"/>
  <edge id="nt10_nt3" from="nt10" to="nt3" type="b"/>
  <edge id="nt10_nt17" from="nt10" to="nt17" type="b"/>
  <edge id="nt17_nt10" from="nt17" to="nt10" type="b"/>
  <edge id="nt17_nt24" from="nt17" to="nt24" type="b"/>
  <edge id="nt24_nt17" from="nt24" to="nt17" type="b"/>
  <edge id="nt24_nt31" from="nt24" to="nt31" type="b"/>
  <edge id="nt31_nt24" from="nt31" to="nt24" type="b"/>
  <edge id="nt31_nt38" from="nt31" to="nt38" type="b"/>
  <edge id="nt38_nt31" from="nt38" to="nt31" type="b"/>
  <edge id="nt38_nt45" from="nt38" to="nt45" type="b"/>
  <edge id="nt45_nt38" from="nt45" to="nt38" type="b"/>
  <edge id="nt4_nt11" from="nt4" to="nt11" type="b"/>
  <edge id="nt11_nt4" from="nt11" to="nt4" type="b"/>
  <edge id="nt11_nt18" from="nt11" to="nt18" type="b"/>
  <edge id="nt18_nt11" from="nt18" to="nt11" type="b"/>
  <edge id="nt18_nt25" from="nt18" to="nt25" type="b"/>
  <edge id="nt25_nt18" from="nt25" to="nt18" type="b"/>
  <edge id="nt25_nt32" from="nt25" to="nt32" type="b"/>
  <edge id="nt32_nt25" from="nt32" to="nt25" type="b"/>
  <edge id="nt32_nt39" from="nt32" to="nt39" type="b"/>
  <edge id="nt39_nt32" from="nt39" to="nt32" type="b"/>
  <edge id="nt39_nt46" from="nt39" to="nt46" type="b"/>
  <edge id="nt46_nt39" from="nt46" to="nt39" type="b"/>
  <edge id="nt5_nt12" from="nt5" to="nt12" type="b"/>
  <edge id="nt12_nt5" from="nt12" to="nt5" type="b"/>
  <edge id="nt12_nt19" from="nt12" to="nt19" type="b"/>
  <edge id="nt19_nt12" from="nt19" to="nt12" type="b"/>
  <edge id="nt19_nt26" from="nt19" to="nt26" type="b"/>
  <edge id="nt26_nt19" from="nt26" to="nt19" type="b"/>
  <edge id="nt26_nt33" from="nt26" to="nt33" type="b"/>
  <edge id="nt33_nt26" from="nt33" to="nt26" type="b"/>
  <edge id="nt33_nt40" from="nt33" to="nt40" type="b"/>
  <edge id="nt40_nt33" from="nt40" to="nt33" type="b"/>
  <edge id="nt40_nt47" from="nt40" to="nt47" type="b"/>
  <edge id="nt47_nt40" from="nt47" to="nt40" type="b"/>
  <edge id="nt6_nt13" from="nt6" to="nt13" type="b"/>
  <edge id="nt13_nt6" from="nt13" to="nt6" type="b"/>
  <edge id="nt13_nt20" from="nt13" to="nt20" type="b"/>
  <edge id="nt20_nt13" from="nt20" to="nt13" type="b"/>
  <edge id="nt20_nt27" from="nt20" to="nt27" type="b"/>
  <edge id="nt27_nt20" from="nt27" to="nt20" type="b"/>
  <edge id="nt27_nt34" from="nt27" to="nt34" type="b"/>
  <edge id="nt34_nt27" from="nt34" to="nt27" type="b"/>
  <edge id="nt34_nt41" from="nt34" to="nt41" type="b"/>
  <edge id="nt41_nt34" from="nt41" to="nt34" type="b"/>
  <edge id="nt41_nt48" from="nt41" to="nt48" type="b"/>
  <edge id="nt48_nt41" from="nt48" to="nt41" type="b"/>
  <edge id="nt7_nt14" from="nt7" to="nt14" type="b"/>
  <edge id="nt14_nt7" from="nt14" to="nt7" type="b"/>
  <edge id="nt14_nt21" from="nt14" to="nt21" type="b"/>
  <edge id="nt21_nt14" from="nt21" to="nt14" type="b"/>
  <edge id="nt21_nt28" from="nt21" to="nt28" type="b"/>
  <edge id="nt28_nt21" from="nt28" to="nt21" type="b"/>
  <edge id="nt28_nt35" from="nt28" to="nt35" type="b"/>
  <edge id="nt35_nt28" from="nt35" to="nt28" type="b"/>
  <edge id="nt35_nt42" from="nt35" to="nt42" type="b"/>
  <edge id="nt42_nt35" from="nt42" to="nt35" type="b"/>
  <edge id="nt42_nt49" from="nt42" to="nt49" type="b"/>
  <edge id="nt49_nt42" from="nt49" to="nt42" type="b"/>
</edges>
