<routes>
  <vType id="type1" length="5" accel="5" decel="10"/>
  <flow id="i_1" departPos="random_free" from="nt1_nt2" to="nt28_np11" begin="0" end="1" departLane="0" departSpeed="0" number="6" type="type1"/>
  <flow id="i_2" departPos="random_free" from="nt2_nt1" to="nt3_np3" begin="0" end="1" departLane="0" departSpeed="0" number="6" type="type1"/>
  <flow id="i_3" departPos="random_free" from="nt1_nt2" to="nt46_np18" begin="0" end="1" departLane="1" departSpeed="0" number="6" type="type1"/>
  <flow id="i_4" departPos="random_free" from="nt2_nt1" to="nt28_np11" begin="0" end="1" departLane="1" departSpeed="0" number="6" type="type1"/>
  <flow id="i_5" departPos="random_free" from="nt2_nt3" to="nt7_np7" begin="0" end="1" departLane="0" departSpeed="0" number="6" type="type1"/>
  <flow id="i_6" departPos="random_free" from="nt3_nt2" to="nt36_np23" begin="0" end="1" departLane="0" departSpeed="0" number="6" type="type1"/>
  <flow id="i_7" departPos="random_free" from="nt2_nt3" to="nt43_np22" begin="0" end="1" departLane="1" departSpeed="0" number="6" type="type1"/>
  <flow id="i_8" departPos="random_free" from="nt3_nt2" to="nt43_np22" begin="0" end="1" departLane="1" departSpeed="0" number="6" type="type1"/>
  <flow id="i_9" departPos="random_free" from="nt3_nt4" to="nt43_np22" begin="0" end="1" departLane="0" departSpeed="0" number="6" type="type1"/>
  <flow id="i_10" departPos="random_free" from="nt4_nt3" to="nt28_np11" begin="0" end="1" departLane="0" departSpeed="0" number="6" type="type1"/>
  <flow id="i_11" departPos="random_free" from="nt3_nt4" to="nt43_np22" begin="0" end="1" departLane="1" departSpeed="0" number="6" type="type1"/>
  <flow id="i_12" departPos="random_free" from="nt4_nt3" to="nt29_np24" begin="0" end="1" departLane="1" departSpeed="0" number="6" type="type1"/>
  <flow id="i_13" departPos="random_free" from="nt4_nt5" to="nt8_np27" begin="0" end="1" departLane="0" departSpeed="0" number="6" type="type1"/>
  <flow id="i_14" departPos="random_free" from="nt5_nt4" to="nt28_np11" begin="0" end="1" departLane="0" departSpeed="0" number="6" type="type1"/>
  <flow id="i_15" departPos="random_free" from="nt4_nt5" to="nt5_np5" begin="0" end="1" departLane="1" departSpeed="0" number="6" type="type1"/>
  <flow id="i_16" departPos="random_free" from="nt5_nt4" to="nt5_np5" begin="0" end="1" departLane="1" departSpeed="0" number="6" type="type1"/>
  <flow id="i_17" departPos="random_free" from="nt5_nt6" to="nt3_np3" begin="0" end="1" departLane="0" departSpeed="0" number="6" type="type1"/>
  <flow id="i_18" departPos="random_free" from="nt6_nt5" to="nt44_np20" begin="0" end="1" departLane="0" departSpeed="0" number="6" type="type1"/>
  <flow id="i_19" departPos="random_free" from="nt5_nt6" to="nt42_np13" begin="0" end="1" departLane="1" departSpeed="0" number="6" type="type1"/>
  <flow id="i_20" departPos="random_free" from="nt6_nt5" to="nt43_np21" begin="0" end="1" departLane="1" departSpeed="0" number="6" type="type1"/>
  <flow id="i_21" departPos="random_free" from="nt6_nt7" to="nt1_np1" begin="0" end="1" departLane="0" departSpeed="0" number="6" type="type1"/>
  <flow id="i_22" departPos="random_free" from="nt7_nt6" to="nt29_np24" begin="0" end="1" departLane="0" departSpeed="0" number="6" type="type1"/>
  <flow id="i_23" departPos="random_free" from="nt6_nt7" to="nt28_np11" begin="0" end="1" departLane="1" departSpeed="0" number="6" type="type1"/>
  <flow id="i_24" departPos="random_free" from="nt7_nt6" to="nt35_np12" begin="0" end="1" departLane="1" departSpeed="0" number="6" type="type1"/>
  <flow id="i_25" departPos="random_free" from="nt8_nt9" to="nt8_np27" begin="0" end="1" departLane="0" departSpeed="0" number="6" type="type1"/>
  <flow id="i_26" departPos="random_free" from="nt9_nt8" to="nt43_np22" begin="0" end="1" departLane="0" departSpeed="0" number="6" type="type1"/>
  <flow id="i_27" departPos="random_free" from="nt8_nt9" to="nt15_np26" begin="0" end="1" departLane="1" departSpeed="0" number="6" type="type1"/>
  <flow id="i_28" departPos="random_free" from="nt9_nt8" to="nt14_np9" begin="0" end="1" departLane="1" departSpeed="0" number="6" type="type1"/>
  <flow id="i_29" departPos="random_free" from="nt9_nt10" to="nt36_np23" begin="0" end="1" departLane="0" departSpeed="0" number="6" type="type1"/>
  <flow id="i_30" departPos="random_free" from="nt10_nt9" to="nt28_np11" begin="0" end="1" departLane="0" departSpeed="0" number="6" type="type1"/>
  <flow id="i_31" departPos="random_free" from="nt9_nt10" to="nt14_np9" begin="0" end="1" departLane="1" departSpeed="0" number="6" type="type1"/>
  <flow id="i_32" departPos="random_free" from="nt10_nt9" to="nt4_np4" begin="0" end="1" departLane="1" departSpeed="0" number="6" type="type1"/>
  <flow id="i_33" departPos="random_free" from="nt10_nt11" to="nt36_np23" begin="0" end="1" departLane="0" departSpeed="0" number="6" type="type1"/>
  <flow id="i_34" departPos="random_free" from="nt11_nt10" to="nt4_np4" begin="0" end="1" departLane="0" departSpeed="0" number="6" type="type1"/>
  <flow id="i_35" departPos="random_free" from="nt10_nt11" to="nt43_np22" begin="0" end="1" departLane="1" departSpeed="0" number="6" type="type1"/>
  <flow id="i_36" departPos="random_free" from="nt11_nt10" to="nt45_np19" begin="0" end="1" departLane="1" departSpeed="0" number="6" type="type1"/>
  <flow id="i_37" departPos="random_free" from="nt11_nt12" to="nt6_np6" begin="0" end="1" departLane="0" departSpeed="0" number="6" type="type1"/>
  <flow id="i_38" departPos="random_free" from="nt12_nt11" to="nt4_np4" begin="0" end="1" departLane="0" departSpeed="0" number="6" type="type1"/>
  <flow id="i_39" departPos="random_free" from="nt11_nt12" to="nt42_np13" begin="0" end="1" departLane="1" departSpeed="0" number="6" type="type1"/>
  <flow id="i_40" departPos="random_free" from="nt12_nt11" to="nt7_np8" begin="0" end="1" departLane="1" departSpeed="0" number="6" type="type1"/>
  <flow id="i_41" departPos="random_free" from="nt12_nt13" to="nt7_np7" begin="0" end="1" departLane="0" departSpeed="0" number="6" type="type1"/>
  <flow id="i_42" departPos="random_free" from="nt13_nt12" to="nt4_np4" begin="0" end="1" departLane="0" departSpeed="0" number="6" type="type1"/>
  <flow id="i_43" departPos="random_free" from="nt12_nt13" to="nt21_np10" begin="0" end="1" departLane="1" departSpeed="0" number="6" type="type1"/>
  <flow id="i_44" departPos="random_free" from="nt13_nt12" to="nt43_np22" begin="0" end="1" departLane="1" departSpeed="0" number="6" type="type1"/>
  <flow id="i_45" departPos="random_free" from="nt13_nt14" to="nt43_np22" begin="0" end="1" departLane="0" departSpeed="0" number="6" type="type1"/>
  <flow id="i_46" departPos="random_free" from="nt14_nt13" to="nt42_np13" begin="0" end="1" departLane="0" departSpeed="0" number="6" type="type1"/>
  <flow id="i_47" departPos="random_free" from="nt13_nt14" to="nt21_np10" begin="0" end="1" departLane="1" departSpeed="0" number="6" type="type1"/>
  <flow id="i_48" departPos="random_free" from="nt14_nt13" to="nt3_np3" begin="0" end="1" departLane="1" departSpeed="0" number="6" type="type1"/>
  <flow id="i_49" departPos="random_free" from="nt15_nt16" to="nt36_np23" begin="0" end="1" departLane="0" departSpeed="0" number="6" type="type1"/>
  <flow id="i_50" departPos="random_free" from="nt16_nt15" to="nt7_np7" begin="0" end="1" departLane="0" departSpeed="0" number="6" type="type1"/>
  <flow id="i_51" departPos="random_free" from="nt15_nt16" to="nt48_np16" begin="0" end="1" departLane="1" departSpeed="0" number="6" type="type1"/>
  <flow id="i_52" departPos="random_free" from="nt16_nt15" to="nt2_np2" begin="0" end="1" departLane="1" departSpeed="0" number="6" type="type1"/>
  <flow id="i_53" departPos="random_free" from="nt16_nt17" to="nt29_np24" begin="0" end="1" departLane="0" departSpeed="0" number="6" type="type1"/>
  <flow id="i_54" departPos="random_free" from="nt17_nt16" to="nt15_np26" begin="0" end="1" departLane="0" departSpeed="0" number="6" type="type1"/>
  <flow id="i_55" departPos="random_free" from="nt16_nt17" to="nt3_np3" begin="0" end="1" departLane="1" departSpeed="0" number="6" type="type1"/>
  <flow id="i_56" departPos="random_free" from="nt17_nt16" to="nt7_np8" begin="0" end="1" departLane="1" departSpeed="0" number="6" type="type1"/>
  <flow id="i_57" departPos="random_free" from="nt17_nt18" to="nt7_np7" begin="0" end="1" departLane="0" departSpeed="0" number="6" type="type1"/>
  <flow id="i_58" departPos="random_free" from="nt18_nt17" to="nt47_np17" begin="0" end="1" departLane="0" departSpeed="0" number="6" type="type1"/>
  <flow id="i_59" departPos="random_free" from="nt17_nt18" to="nt43_np21" begin="0" end="1" departLane="1" departSpeed="0" number="6" type="type1"/>
  <flow id="i_60" departPos="random_free" from="nt18_nt17" to="nt49_np15" begin="0" end="1" departLane="1" departSpeed="0" number="6" type="type1"/>
  <flow id="i_61" departPos="random_free" from="nt18_nt19" to="nt49_np15" begin="0" end="1" departLane="0" departSpeed="0" number="6" type="type1"/>
  <flow id="i_62" departPos="random_free" from="nt19_nt18" to="nt49_np14" begin="0" end="1" departLane="0" departSpeed="0" number="6" type="type1"/>
  <flow id="i_63" departPos="random_free" from="nt18_nt19" to="nt22_np25" begin="0" end="1" departLane="1" departSpeed="0" number="6" type="type1"/>
  <flow id="i_64" departPos="random_free" from="nt19_nt18" to="nt36_np23" begin="0" end="1" departLane="1" departSpeed="0" number="6" type="type1"/>
  <flow id="i_65" departPos="random_free" from="nt19_nt20" to="nt8_np27" begin="0" end="1" departLane="0" departSpeed="0" number="6" type="type1"/>
  <flow id="i_66" departPos="random_free" from="nt20_nt19" to="nt36_np23" begin="0" end="1" departLane="0" departSpeed="0" number="6" type="type1"/>
  <flow id="i_67" departPos="random_free" from="nt19_nt20" to="nt14_np9" begin="0" end="1" departLane="1" departSpeed="0" number="6" type="type1"/>
  <flow id="i_68" departPos="random_free" from="nt20_nt19" to="nt46_np18" begin="0" end="1" departLane="1" departSpeed="0" number="6" type="type1"/>
  <flow id="i_69" departPos="random_free" from="nt20_nt21" to="nt1_np28" begin="0" end="1" departLane="0" departSpeed="0" number="6" type="type1"/>
  <flow id="i_70" departPos="random_free" from="nt21_nt20" to="nt28_np11" begin="0" end="1" departLane="0" departSpeed="0" number="6" type="type1"/>
  <flow id="i_71" departPos="random_free" from="nt20_nt21" to="nt7_np8" begin="0" end="1" departLane="1" departSpeed="0" number="6" type="type1"/>
  <flow id="i_72" departPos="random_free" from="nt21_nt20" to="nt21_np10" begin="0" end="1" departLane="1" departSpeed="0" number="6" type="type1"/>
  <flow id="i_73" departPos="random_free" from="nt22_nt23" to="nt36_np23" begin="0" end="1" departLane="0" departSpeed="0" number="6" type="type1"/>
  <flow id="i_74" departPos="random_free" from="nt23_nt22" to="nt48_np16" begin="0" end="1" departLane="0" departSpeed="0" number="6" type="type1"/>
  <flow id="i_75" departPos="random_free" from="nt22_nt23" to="nt7_np8" begin="0" end="1" departLane="1" departSpeed="0" number="6" type="type1"/>
  <flow id="i_76" departPos="random_free" from="nt23_nt22" to="nt14_np9" begin="0" end="1" departLane="1" departSpeed="0" number="6" type="type1"/>
  <flow id="i_77" departPos="random_free" from="nt23_nt24" to="nt35_np12" begin="0" end="1" departLane="0" departSpeed="0" number="6" type="type1"/>
  <flow id="i_78" departPos="random_free" from="nt24_nt23" to="nt43_np21" begin="0" end="1" departLane="0" departSpeed="0" number="6" type="type1"/>
  <flow id="i_79" departPos="random_free" from="nt23_nt24" to="nt43_np22" begin="0" end="1" departLane="1" departSpeed="0" number="6" type="type1"/>
  <flow id="i_80" departPos="random_free" from="nt24_nt23" to="nt43_np22" begin="0" end="1" departLane="1" departSpeed="0" number="6" type="type1"/>
  <flow id="i_81" departPos="random_free" from="nt24_nt25" to="nt21_np10" begin="0" end="1" departLane="0" departSpeed="0" number="6" type="type1"/>
  <flow id="i_82" departPos="random_free" from="nt25_nt24" to="nt4_np4" begin="0" end="1" departLane="0" departSpeed="0" number="6" type="type1"/>
  <flow id="i_83" departPos="random_free" from="nt24_nt25" to="nt1_np28" begin="0" end="1" departLane="1" departSpeed="0" number="6" type="type1"/>
  <flow id="i_84" departPos="random_free" from="nt25_nt24" to="nt1_np1" begin="0" end="1" departLane="1" departSpeed="0" number="6" type="type1"/>
  <flow id="i_85" departPos="random_free" from="nt25_nt26" to="nt43_np21" begin="0" end="1" departLane="0" departSpeed="0" number="6" type="type1"/>
  <flow id="i_86" departPos="random_free" from="nt26_nt25" to="nt42_np13" begin="0" end="1" departLane="0" departSpeed="0" number="6" type="type1"/>
  <flow id="i_87" departPos="random_free" from="nt25_nt26" to="nt35_np12" begin="0" end="1" departLane="1" departSpeed="0" number="6" type="type1"/>
  <flow id="i_88" departPos="random_free" from="nt26_nt25" to="nt44_np20" begin="0" end="1" departLane="1" departSpeed="0" number="6" type="type1"/>
  <flow id="i_89" departPos="random_free" from="nt26_nt27" to="nt7_np8" begin="0" end="1" departLane="0" departSpeed="0" number="6" type="type1"/>
  <flow id="i_90" departPos="random_free" from="nt27_nt26" to="nt2_np2" begin="0" end="1" departLane="0" departSpeed="0" number="6" type="type1"/>
  <flow id="i_91" departPos="random_free" from="nt26_nt27" to="nt2_np2" begin="0" end="1" departLane="1" departSpeed="0" number="6" type="type1"/>
  <flow id="i_92" departPos="random_free" from="nt27_nt26" to="nt14_np9" begin="0" end="1" departLane="1" departSpeed="0" number="6" type="type1"/>
  <flow id="i_93" departPos="random_free" from="nt27_nt28" to="nt45_np19" begin="0" end="1" departLane="0" departSpeed="0" number="6" type="type1"/>
  <flow id="i_94" departPos="random_free" from="nt28_nt27" to="nt22_np25" begin="0" end="1" departLane="0" departSpeed="0" number="6" type="type1"/>
  <flow id="i_95" departPos="random_free" from="nt27_nt28" to="nt42_np13" begin="0" end="1" departLane="1" departSpeed="0" number="6" type="type1"/>
  <flow id="i_96" departPos="random_free" from="nt28_nt27" to="nt29_np24" begin="0" end="1" departLane="1" departSpeed="0" number="6" type="type1"/>
  <flow id="i_97" departPos="random_free" from="nt29_nt30" to="nt1_np1" begin="0" end="1" departLane="0" departSpeed="0" number="6" type="type1"/>
  <flow id="i_98" departPos="random_free" from="nt30_nt29" to="nt14_np9" begin="0" end="1" departLane="0" departSpeed="0" number="6" type="type1"/>
  <flow id="i_99" departPos="random_free" from="nt29_nt30" to="nt42_np13" begin="0" end="1" departLane="1" departSpeed="0" number="6" type="type1"/>
  <flow id="i_100" departPos="random_free" from="nt30_nt29" to="nt49_np14" begin="0" end="1" departLane="1" departSpeed="0" number="6" type="type1"/>
  <flow id="i_101" departPos="random_free" from="nt30_nt31" to="nt21_np10" begin="0" end="1" departLane="0" departSpeed="0" number="6" type="type1"/>
  <flow id="i_102" departPos="random_free" from="nt31_nt30" to="nt28_np11" begin="0" end="1" departLane="0" departSpeed="0" number="6" type="type1"/>
  <flow id="i_103" departPos="random_free" from="nt30_nt31" to="nt7_np8" begin="0" end="1" departLane="1" departSpeed="0" number="6" type="type1"/>
  <flow id="i_104" departPos="random_free" from="nt31_nt30" to="nt4_np4" begin="0" end="1" departLane="1" departSpeed="0" number="6" type="type1"/>
  <flow id="i_105" departPos="random_free" from="nt31_nt32" to="nt21_np10" begin="0" end="1" departLane="0" departSpeed="0" number="6" type="type1"/>
  <flow id="i_106" departPos="random_free" from="nt32_nt31" to="nt43_np21" begin="0" end="1" departLane="0" departSpeed="0" number="6" type="type1"/>
  <flow id="i_107" departPos="random_free" from="nt31_nt32" to="nt21_np10" begin="0" end="1" departLane="1" departSpeed="0" number="6" type="type1"/>
  <flow id="i_108" departPos="random_free" from="nt32_nt31" to="nt22_np25" begin="0" end="1" departLane="1" departSpeed="0" number="6" type="type1"/>
  <flow id="i_109" departPos="random_free" from="nt32_nt33" to="nt46_np18" begin="0" end="1" departLane="0" departSpeed="0" number="6" type="type1"/>
  <flow id="i_110" departPos="random_free" from="nt33_nt32" to="nt42_np13" begin="0" end="1" departLane="0" departSpeed="0" number="6" type="type1"/>
  <flow id="i_111" departPos="random_free" from="nt32_nt33" to="nt15_np26" begin="0" end="1" departLane="1" departSpeed="0" number="6" type="type1"/>
  <flow id="i_112" departPos="random_free" from="nt33_nt32" to="nt22_np25" begin="0" end="1" departLane="1" departSpeed="0" number="6" type="type1"/>
  <flow id="i_113" departPos="random_free" from="nt33_nt34" to="nt44_np20" begin="0" end="1" departLane="0" departSpeed="0" number="6" type="type1"/>
  <flow id="i_114" departPos="random_free" from="nt34_nt33" to="nt22_np25" begin="0" end="1" departLane="0" departSpeed="0" number="6" type="type1"/>
  <flow id="i_115" departPos="random_free" from="nt33_nt34" to="nt44_np20" begin="0" end="1" departLane="1" departSpeed="0" number="6" type="type1"/>
  <flow id="i_116" departPos="random_free" from="nt34_nt33" to="nt21_np10" begin="0" end="1" departLane="1" departSpeed="0" number="6" type="type1"/>
  <flow id="i_117" departPos="random_free" from="nt34_nt35" to="nt42_np13" begin="0" end="1" departLane="0" departSpeed="0" number="6" type="type1"/>
  <flow id="i_118" departPos="random_free" from="nt35_nt34" to="nt29_np24" begin="0" end="1" departLane="0" departSpeed="0" number="6" type="type1"/>
  <flow id="i_119" departPos="random_free" from="nt34_nt35" to="nt48_np16" begin="0" end="1" departLane="1" departSpeed="0" number="6" type="type1"/>
  <flow id="i_120" departPos="random_free" from="nt35_nt34" to="nt35_np12" begin="0" end="1" departLane="1" departSpeed="0" number="6" type="type1"/>
  <flow id="i_121" departPos="random_free" from="nt36_nt37" to="nt7_np7" begin="0" end="1" departLane="0" departSpeed="0" number="6" type="type1"/>
  <flow id="i_122" departPos="random_free" from="nt37_nt36" to="nt49_np15" begin="0" end="1" departLane="0" departSpeed="0" number="6" type="type1"/>
  <flow id="i_123" departPos="random_free" from="nt36_nt37" to="nt46_np18" begin="0" end="1" departLane="1" departSpeed="0" number="6" type="type1"/>
  <flow id="i_124" departPos="random_free" from="nt37_nt36" to="nt4_np4" begin="0" end="1" departLane="1" departSpeed="0" number="6" type="type1"/>
  <flow id="i_125" departPos="random_free" from="nt37_nt38" to="nt47_np17" begin="0" end="1" departLane="0" departSpeed="0" number="6" type="type1"/>
  <flow id="i_126" departPos="random_free" from="nt38_nt37" to="nt45_np19" begin="0" end="1" departLane="0" departSpeed="0" number="6" type="type1"/>
  <flow id="i_127" departPos="random_free" from="nt37_nt38" to="nt28_np11" begin="0" end="1" departLane="1" departSpeed="0" number="6" type="type1"/>
  <flow id="i_128" departPos="random_free" from="nt38_nt37" to="nt49_np14" begin="0" end="1" departLane="1" departSpeed="0" number="6" type="type1"/>
  <flow id="i_129" departPos="random_free" from="nt38_nt39" to="nt4_np4" begin="0" end="1" departLane="0" departSpeed="0" number="6" type="type1"/>
  <flow id="i_130" departPos="random_free" from="nt39_nt38" to="nt22_np25" begin="0" end="1" departLane="0" departSpeed="0" number="6" type="type1"/>
  <flow id="i_131" departPos="random_free" from="nt38_nt39" to="nt22_np25" begin="0" end="1" departLane="1" departSpeed="0" number="6" type="type1"/>
  <flow id="i_132" departPos="random_free" from="nt39_nt38" to="nt44_np20" begin="0" end="1" departLane="1" departSpeed="0" number="6" type="type1"/>
  <flow id="i_133" departPos="random_free" from="nt39_nt40" to="nt15_np26" begin="0" end="1" departLane="0" departSpeed="0" number="6" type="type1"/>
  <flow id="i_134" departPos="random_free" from="nt40_nt39" to="nt8_np27" begin="0" end="1" departLane="0" departSpeed="0" number="6" type="type1"/>
  <flow id="i_135" departPos="random_free" from="nt39_nt40" to="nt45_np19" begin="0" end="1" departLane="1" departSpeed="0" number="6" type="type1"/>
  <flow id="i_136" departPos="random_free" from="nt40_nt39" to="nt4_np4" begin="0" end="1" departLane="1" departSpeed="0" number="6" type="type1"/>
  <flow id="i_137" departPos="random_free" from="nt40_nt41" to="nt1_np28" begin="0" end="1" departLane="0" departSpeed="0" number="6" type="type1"/>
  <flow id="i_138" departPos="random_free" from="nt41_nt40" to="nt43_np22" begin="0" end="1" departLane="0" departSpeed="0" number="6" type="type1"/>
  <flow id="i_139" departPos="random_free" from="nt40_nt41" to="nt21_np10" begin="0" end="1" departLane="1" departSpeed="0" number="6" type="type1"/>
  <flow id="i_140" departPos="random_free" from="nt41_nt40" to="nt43_np21" begin="0" end="1" departLane="1" departSpeed="0" number="6" type="type1"/>
  <flow id="i_141" departPos="random_free" from="nt41_nt42" to="nt43_np22" begin="0" end="1" departLane="0" departSpeed="0" number="6" type="type1"/>
  <flow id="i_142" departPos="random_free" from="nt42_nt41" to="nt42_np13" begin="0" end="1" departLane="0" departSpeed="0" number="6" type="type1"/>
  <flow id="i_143" departPos="random_free" from="nt41_nt42" to="nt15_np26" begin="0" end="1" departLane="1" departSpeed="0" number="6" type="type1"/>
  <flow id="i_144" departPos="random_free" from="nt42_nt41" to="nt43_np22" begin="0" end="1" departLane="1" departSpeed="0" number="6" type="type1"/>
  <flow id="i_145" departPos="random_free" from="nt43_nt44" to="nt43_np21" begin="0" end="1" departLane="0" departSpeed="0" number="6" type="type1"/>
  <flow id="i_146" departPos="random_free" from="nt44_nt43" to="nt4_np4" begin="0" end="1" departLane="0" departSpeed="0" number="6" type="type1"/>
  <flow id="i_147" departPos="random_free" from="nt43_nt44" to="nt5_np5" begin="0" end="1" departLane="1" departSpeed="0" number="6" type="type1"/>
  <flow id="i_148" departPos="random_free" from="nt44_nt43" to="nt7_np8" begin="0" end="1" departLane="1" departSpeed="0" number="6" type="type1"/>
  <flow id="i_149" departPos="random_free" from="nt44_nt45" to="nt36_np23" begin="0" end="1" departLane="0" departSpeed="0" number="6" type="type1"/>
  <flow id="i_150" departPos="random_free" from="nt45_nt44" to="nt44_np20" begin="0" end="1" departLane="0" departSpeed="0" number="6" type="type1"/>
  <flow id="i_151" departPos="random_free" from="nt44_nt45" to="nt49_np14" begin="0" end="1" departLane="1" departSpeed="0" number="6" type="type1"/>
  <flow id="i_152" departPos="random_free" from="nt45_nt44" to="nt47_np17" begin="0" end="1" departLane="1" departSpeed="0" number="6" type="type1"/>
  <flow id="i_153" departPos="random_free" from="nt45_nt46" to="nt2_np2" begin="0" end="1" departLane="0" departSpeed="0" number="6" type="type1"/>
  <flow id="i_154" departPos="random_free" from="nt46_nt45" to="nt1_np28" begin="0" end="1" departLane="0" departSpeed="0" number="6" type="type1"/>
  <flow id="i_155" departPos="random_free" from="nt45_nt46" to="nt49_np14" begin="0" end="1" departLane="1" departSpeed="0" number="6" type="type1"/>
  <flow id="i_156" departPos="random_free" from="nt46_nt45" to="nt29_np24" begin="0" end="1" departLane="1" departSpeed="0" number="6" type="type1"/>
  <flow id="i_157" departPos="random_free" from="nt46_nt47" to="nt22_np25" begin="0" end="1" departLane="0" departSpeed="0" number="6" type="type1"/>
  <flow id="i_158" departPos="random_free" from="nt47_nt46" to="nt43_np22" begin="0" end="1" departLane="0" departSpeed="0" number="6" type="type1"/>
  <flow id="i_159" departPos="random_free" from="nt46_nt47" to="nt5_np5" begin="0" end="1" departLane="1" departSpeed="0" number="6" type="type1"/>
  <flow id="i_160" departPos="random_free" from="nt47_nt46" to="nt47_np17" begin="0" end="1" departLane="1" departSpeed="0" number="6" type="type1"/>
  <flow id="i_161" departPos="random_free" from="nt47_nt48" to="nt29_np24" begin="0" end="1" departLane="0" departSpeed="0" number="6" type="type1"/>
  <flow id="i_162" departPos="random_free" from="nt48_nt47" to="nt43_np22" begin="0" end="1" departLane="0" departSpeed="0" number="6" type="type1"/>
  <flow id="i_163" departPos="random_free" from="nt47_nt48" to="nt47_np17" begin="0" end="1" departLane="1" departSpeed="0" number="6" type="type1"/>
  <flow id="i_164" departPos="random_free" from="nt48_nt47" to="nt44_np20" begin="0" end="1" departLane="1" departSpeed="0" number="6" type="type1"/>
  <flow id="i_165" departPos="random_free" from="nt48_nt49" to="nt7_np8" begin="0" end="1" departLane="0" departSpeed="0" number="6" type="type1"/>
  <flow id="i_166" departPos="random_free" from="nt49_nt48" to="nt2_np2" begin="0" end="1" departLane="0" departSpeed="0" number="6" type="type1"/>
  <flow id="i_167" departPos="random_free" from="nt48_nt49" to="nt22_np25" begin="0" end="1" departLane="1" departSpeed="0" number="6" type="type1"/>
  <flow id="i_168" departPos="random_free" from="nt49_nt48" to="nt28_np11" begin="0" end="1" departLane="1" departSpeed="0" number="6" type="type1"/>
  <flow id="i_169" departPos="random_free" from="nt1_nt8" to="nt2_np2" begin="0" end="1" departLane="0" departSpeed="0" number="6" type="type1"/>
  <flow id="i_170" departPos="random_free" from="nt8_nt1" to="nt49_np15" begin="0" end="1" departLane="0" departSpeed="0" number="6" type="type1"/>
  <flow id="i_171" departPos="random_free" from="nt8_nt15" to="nt43_np21" begin="0" end="1" departLane="0" departSpeed="0" number="6" type="type1"/>
  <flow id="i_172" departPos="random_free" from="nt15_nt8" to="nt7_np8" begin="0" end="1" departLane="0" departSpeed="0" number="6" type="type1"/>
  <flow id="i_173" departPos="random_free" from="nt15_nt22" to="nt43_np21" begin="0" end="1" departLane="0" departSpeed="0" number="6" type="type1"/>
  <flow id="i_174" departPos="random_free" from="nt22_nt15" to="nt5_np5" begin="0" end="1" departLane="0" departSpeed="0" number="6" type="type1"/>
  <flow id="i_175" departPos="random_free" from="nt22_nt29" to="nt48_np16" begin="0" end="1" departLane="0" departSpeed="0" number="6" type="type1"/>
  <flow id="i_176" departPos="random_free" from="nt29_nt22" to="nt43_np21" begin="0" end="1" departLane="0" departSpeed="0" number="6" type="type1"/>
  <flow id="i_177" departPos="random_free" from="nt29_nt36" to="nt6_np6" begin="0" end="1" departLane="0" departSpeed="0" number="6" type="type1"/>
  <flow id="i_178" departPos="random_free" from="nt36_nt29" to="nt7_np8" begin="0" end="1" departLane="0" departSpeed="0" number="6" type="type1"/>
  <flow id="i_179" departPos="random_free" from="nt36_nt43" to="nt49_np15" begin="0" end="1" departLane="0" departSpeed="0" number="6" type="type1"/>
  <flow id="i_180" departPos="random_free" from="nt43_nt36" to="nt42_np13" begin="0" end="1" departLane="0" departSpeed="0" number="6" type="type1"/>
  <flow id="i_181" departPos="random_free" from="nt2_nt9" to="nt42_np13" begin="0" end="1" departLane="0" departSpeed="0" number="6" type="type1"/>
  <flow id="i_182" departPos="random_free" from="nt9_nt2" to="nt3_np3" begin="0" end="1" departLane="0" departSpeed="0" number="6" type="type1"/>
  <flow id="i_183" departPos="random_free" from="nt9_nt16" to="nt35_np12" begin="0" end="1" departLane="0" departSpeed="0" number="6" type="type1"/>
  <flow id="i_184" departPos="random_free" from="nt16_nt9" to="nt46_np18" begin="0" end="1" departLane="0" departSpeed="0" number="6" type="type1"/>
  <flow id="i_185" departPos="random_free" from="nt16_nt23" to="nt45_np19" begin="0" end="1" departLane="0" departSpeed="0" number="6" type="type1"/>
  <flow id="i_186" departPos="random_free" from="nt23_nt16" to="nt45_np19" begin="0" end="1" departLane="0" departSpeed="0" number="6" type="type1"/>
  <flow id="i_187" departPos="random_free" from="nt23_nt30" to="nt45_np19" begin="0" end="1" departLane="0" departSpeed="0" number="6" type="type1"/>
  <flow id="i_188" departPos="random_free" from="nt30_nt23" to="nt6_np6" begin="0" end="1" departLane="0" departSpeed="0" number="6" type="type1"/>
  <flow id="i_189" departPos="random_free" from="nt30_nt37" to="nt14_np9" begin="0" end="1" departLane="0" departSpeed="0" number="6" type="type1"/>
  <flow id="i_190" departPos="random_free" from="nt37_nt30" to="nt5_np5" begin="0" end="1" departLane="0" departSpeed="0" number="6" type="type1"/>
  <flow id="i_191" departPos="random_free" from="nt37_nt44" to="nt5_np5" begin="0" end="1" departLane="0" departSpeed="0" number="6" type="type1"/>
  <flow id="i_192" departPos="random_free" from="nt44_nt37" to="nt49_np15" begin="0" end="1" departLane="0" departSpeed="0" number="6" type="type1"/>
  <flow id="i_193" departPos="random_free" from="nt3_nt10" to="nt22_np25" begin="0" end="1" departLane="0" departSpeed="0" number="6" type="type1"/>
  <flow id="i_194" departPos="random_free" from="nt10_nt3" to="nt8_np27" begin="0" end="1" departLane="0" departSpeed="0" number="6" type="type1"/>
  <flow id="i_195" departPos="random_free" from="nt10_nt17" to="nt3_np3" begin="0" end="1" departLane="0" departSpeed="0" number="6" type="type1"/>
  <flow id="i_196" departPos="random_free" from="nt17_nt10" to="nt46_np18" begin="0" end="1" departLane="0" departSpeed="0" number="6" type="type1"/>
  <flow id="i_197" departPos="random_free" from="nt17_nt24" to="nt22_np25" begin="0" end="1" departLane="0" departSpeed="0" number="6" type="type1"/>
  <flow id="i_198" departPos="random_free" from="nt24_nt17" to="nt43_np22" begin="0" end="1" departLane="0" departSpeed="0" number="6" type="type1"/>
  <flow id="i_199" departPos="random_free" from="nt24_nt31" to="nt1_np1" begin="0" end="1" departLane="0" departSpeed="0" number="6" type="type1"/>
  <flow id="i_200" departPos="random_free" from="nt31_nt24" to="nt1_np28" begin="0" end="1" departLane="0" departSpeed="0" number="6" type="type1"/>
  <flow id="i_201" departPos="random_free" from="nt31_nt38" to="nt2_np2" begin="0" end="1" departLane="0" departSpeed="0" number="6" type="type1"/>