<?xml version="1.0" encoding="UTF-8"?>

<!-- generated on 2025-04-21 11:22:11 by Eclipse SUMO netedit Version 1.22.0
<neteditConfiguration xmlns:xsi="http://www.w3.org/2001/XMLSchema-instance" xsi:noNamespaceSchemaLocation="http://sumo.dlr.de/xsd/neteditConfiguration.xsd">

    <input>
        <sumocfg-file value="C:\Users\yzy\Desktop\毕业论文\src\accident_lights\src\sumo_files\2grid.sumocfg"/>
        <additional-files value=""/>
        <route-files value="C:\Users\yzy\Desktop\毕业论文\src\accident_lights\src\sumo_files\2groutes.xml"/>
        <sumo-net-file value="C:\Users\yzy\Desktop\毕业论文\src\accident_lights\src\sumo_files\2gridnet.net.xml"/>
    </input>

    <output>
        <output-file value="C:\Users\yzy\Desktop\毕业论文\src\accident_lights\src\sumo_files\2gridnet.net.xml"/>
    </output>

    <processing>
        <geometry.min-radius.fix.railways value="false"/>
        <geometry.max-grade.fix value="false"/>
        <offset.disable-normalization value="true"/>
        <lefthand value="0"/>
    </processing>

    <junctions>
        <no-turnarounds value="true"/>
        <junctions.corner-detail value="5"/>
        <junctions.limit-turn-speed value="5.50"/>
        <rectangular-lane-cut value="0"/>
    </junctions>

    <pedestrian>
        <walkingareas value="0"/>
    </pedestrian>

    <netedit>
        <ignore.routeelements value="false"/>
    </netedit>

</neteditConfiguration>
-->

<net version="1.20" junctionCornerDetail="5" limitTurnSpeed="5.50" xmlns:xsi="http://www.w3.org/2001/XMLSchema-instance" xsi:noNamespaceSchemaLocation="http://sumo.dlr.de/xsd/net_file.xsd">

    <location netOffset="0.00,0.00" convBoundary="0.00,400.00,600.00,1000.00" origBoundary="0.00,0.00,1000.00,1000.00" projParameter="!"/>

    <edge id=":A3_0" function="internal">
        <lane id=":A3_0_0" index="0" speed="3.65" length="4.67" shape="0.00,601.60 -1.20,600.80 -1.60,600.00 -1.20,599.20 0.00,598.40"/>
    </edge>
    <edge id=":A4_0" function="internal">
        <lane id=":A4_0_0" index="0" speed="3.65" length="4.67" shape="0.00,801.60 -1.20,800.80 -1.60,800.00 -1.20,799.20 0.00,798.40"/>
    </edge>
    <edge id=":B3_0" function="internal">
        <lane id=":B3_0_0" index="0" speed="6.51" length="9.03" shape="192.00,613.60 191.65,611.15 190.60,609.40 188.85,608.35 186.40,608.00"/>
    </edge>
    <edge id=":B3_1" function="internal">
        <lane id=":B3_1_0" index="0" speed="13.89" length="27.20" shape="192.00,613.60 192.00,586.40"/>
        <lane id=":B3_1_1" index="1" speed="13.89" length="27.20" shape="195.20,613.60 195.20,586.40"/>
        <lane id=":B3_1_2" index="2" speed="13.89" length="27.20" shape="198.40,613.60 198.40,586.40"/>
    </edge>
    <edge id=":B3_4" function="internal">
        <lane id=":B3_4_0" index="0" speed="10.36" length="24.51" shape="198.40,613.60 199.35,606.95 202.20,602.20 206.95,599.35 213.60,598.40"/>
    </edge>
    <edge id=":B3_5" function="internal">
        <lane id=":B3_5_0" index="0" speed="6.51" length="9.03" shape="213.60,608.00 211.15,608.35 209.40,609.40 208.35,611.15 208.00,613.60"/>
    </edge>
    <edge id=":B3_6" function="internal">
        <lane id=":B3_6_0" index="0" speed="13.89" length="27.20" shape="213.60,608.00 186.40,608.00"/>
        <lane id=":B3_6_1" index="1" speed="13.89" length="27.20" shape="213.60,604.80 186.40,604.80"/>
        <lane id=":B3_6_2" index="2" speed="13.89" length="27.20" shape="213.60,601.60 186.40,601.60"/>
    </edge>
    <edge id=":B3_9" function="internal">
        <lane id=":B3_9_0" index="0" speed="10.36" length="24.51" shape="213.60,601.60 206.95,600.65 202.20,597.80 199.35,593.05 198.40,586.40"/>
    </edge>
    <edge id=":B3_10" function="internal">
        <lane id=":B3_10_0" index="0" speed="6.51" length="9.03" shape="208.00,586.40 208.35,588.85 209.40,590.60 211.15,591.65 213.60,592.00"/>
    </edge>
    <edge id=":B3_11" function="internal">
        <lane id=":B3_11_0" index="0" speed="13.89" length="27.20" shape="208.00,586.40 208.00,613.60"/>
        <lane id=":B3_11_1" index="1" speed="13.89" length="27.20" shape="204.80,586.40 204.80,613.60"/>
        <lane id=":B3_11_2" index="2" speed="13.89" length="27.20" shape="201.60,586.40 201.60,613.60"/>
    </edge>
    <edge id=":B3_14" function="internal">
        <lane id=":B3_14_0" index="0" speed="10.36" length="24.51" shape="201.60,586.40 200.65,593.05 197.80,597.80 193.05,600.65 186.40,601.60"/>
    </edge>
    <edge id=":B3_15" function="internal">
        <lane id=":B3_15_0" index="0" speed="6.51" length="9.03" shape="186.40,592.00 188.85,591.65 190.60,590.60 191.65,588.85 192.00,586.40"/>
    </edge>
    <edge id=":B3_16" function="internal">
        <lane id=":B3_16_0" index="0" speed="13.89" length="27.20" shape="186.40,592.00 213.60,592.00"/>
        <lane id=":B3_16_1" index="1" speed="13.89" length="27.20" shape="186.40,595.20 213.60,595.20"/>
        <lane id=":B3_16_2" index="2" speed="13.89" length="27.20" shape="186.40,598.40 213.60,598.40"/>
    </edge>
    <edge id=":B3_19" function="internal">
        <lane id=":B3_19_0" index="0" speed="10.36" length="24.51" shape="186.40,598.40 193.05,599.35 197.80,602.20 200.65,606.95 201.60,613.60"/>
    </edge>
    <edge id=":B4_0" function="internal">
        <lane id=":B4_0_0" index="0" speed="6.51" length="9.03" shape="192.00,813.60 191.65,811.15 190.60,809.40 188.85,808.35 186.40,808.00"/>
    </edge>
    <edge id=":B4_1" function="internal">
        <lane id=":B4_1_0" index="0" speed="13.89" length="27.20" shape="192.00,813.60 192.00,786.40"/>
        <lane id=":B4_1_1" index="1" speed="13.89" length="27.20" shape="195.20,813.60 195.20,786.40"/>
        <lane id=":B4_1_2" index="2" speed="13.89" length="27.20" shape="198.40,813.60 198.40,786.40"/>
    </edge>
    <edge id=":B4_4" function="internal">
        <lane id=":B4_4_0" index="0" speed="10.36" length="24.51" shape="198.40,813.60 199.35,806.95 202.20,802.20 206.95,799.35 213.60,798.40"/>
    </edge>
    <edge id=":B4_5" function="internal">
        <lane id=":B4_5_0" index="0" speed="6.51" length="9.03" shape="213.60,808.00 211.15,808.35 209.40,809.40 208.35,811.15 208.00,813.60"/>
    </edge>
    <edge id=":B4_6" function="internal">
        <lane id=":B4_6_0" index="0" speed="13.89" length="27.20" shape="213.60,808.00 186.40,808.00"/>
        <lane id=":B4_6_1" index="1" speed="13.89" length="27.20" shape="213.60,804.80 186.40,804.80"/>
        <lane id=":B4_6_2" index="2" speed="13.89" length="27.20" shape="213.60,801.60 186.40,801.60"/>
    </edge>
    <edge id=":B4_9" function="internal">
        <lane id=":B4_9_0" index="0" speed="10.36" length="24.51" shape="213.60,801.60 206.95,800.65 202.20,797.80 199.35,793.05 198.40,786.40"/>
    </edge>
    <edge id=":B4_10" function="internal">
        <lane id=":B4_10_0" index="0" speed="6.51" length="9.03" shape="208.00,786.40 208.35,788.85 209.40,790.60 211.15,791.65 213.60,792.00"/>
    </edge>
    <edge id=":B4_11" function="internal">
        <lane id=":B4_11_0" index="0" speed="13.89" length="27.20" shape="208.00,786.40 208.00,813.60"/>
        <lane id=":B4_11_1" index="1" speed="13.89" length="27.20" shape="204.80,786.40 204.80,813.60"/>
        <lane id=":B4_11_2" index="2" speed="13.89" length="27.20" shape="201.60,786.40 201.60,813.60"/>
    </edge>
    <edge id=":B4_14" function="internal">
        <lane id=":B4_14_0" index="0" speed="10.36" length="24.51" shape="201.60,786.40 200.65,793.05 197.80,797.80 193.05,800.65 186.40,801.60"/>
    </edge>
    <edge id=":B4_15" function="internal">
        <lane id=":B4_15_0" index="0" speed="6.51" length="9.03" shape="186.40,792.00 188.85,791.65 190.60,790.60 191.65,788.85 192.00,786.40"/>
    </edge>
    <edge id=":B4_16" function="internal">
        <lane id=":B4_16_0" index="0" speed="13.89" length="27.20" shape="186.40,792.00 213.60,792.00"/>
        <lane id=":B4_16_1" index="1" speed="13.89" length="27.20" shape="186.40,795.20 213.60,795.20"/>
        <lane id=":B4_16_2" index="2" speed="13.89" length="27.20" shape="186.40,798.40 213.60,798.40"/>
    </edge>
    <edge id=":B4_19" function="internal">
        <lane id=":B4_19_0" index="0" speed="10.36" length="24.51" shape="186.40,798.40 193.05,799.35 197.80,802.20 200.65,806.95 201.60,813.60"/>
    </edge>
    <edge id=":B5_0" function="internal">
        <lane id=":B5_0_0" index="0" speed="3.65" length="4.67" shape="201.60,1000.00 200.80,1001.20 200.00,1001.60 199.20,1001.20 198.40,1000.00"/>
    </edge>
    <edge id=":C3_0" function="internal">
        <lane id=":C3_0_0" index="0" speed="6.51" length="9.03" shape="392.00,613.60 391.65,611.15 390.60,609.40 388.85,608.35 386.40,608.00"/>
    </edge>
    <edge id=":C3_1" function="internal">
        <lane id=":C3_1_0" index="0" speed="13.89" length="27.20" shape="392.00,613.60 392.00,586.40"/>
        <lane id=":C3_1_1" index="1" speed="13.89" length="27.20" shape="395.20,613.60 395.20,586.40"/>
        <lane id=":C3_1_2" index="2" speed="13.89" length="27.20" shape="398.40,613.60 398.40,586.40"/>
    </edge>
    <edge id=":C3_4" function="internal">
        <lane id=":C3_4_0" index="0" speed="10.36" length="24.51" shape="398.40,613.60 399.35,606.95 402.20,602.20 406.95,599.35 413.60,598.40"/>
    </edge>
    <edge id=":C3_5" function="internal">
        <lane id=":C3_5_0" index="0" speed="6.51" length="9.03" shape="413.60,608.00 411.15,608.35 409.40,609.40 408.35,611.15 408.00,613.60"/>
    </edge>
    <edge id=":C3_6" function="internal">
        <lane id=":C3_6_0" index="0" speed="13.89" length="27.20" shape="413.60,608.00 386.40,608.00"/>
        <lane id=":C3_6_1" index="1" speed="13.89" length="27.20" shape="413.60,604.80 386.40,604.80"/>
        <lane id=":C3_6_2" index="2" speed="13.89" length="27.20" shape="413.60,601.60 386.40,601.60"/>
    </edge>
    <edge id=":C3_9" function="internal">
        <lane id=":C3_9_0" index="0" speed="10.36" length="24.51" shape="413.60,601.60 406.95,600.65 402.20,597.80 399.35,593.05 398.40,586.40"/>
    </edge>
    <edge id=":C3_10" function="internal">
        <lane id=":C3_10_0" index="0" speed="6.51" length="9.03" shape="408.00,586.40 408.35,588.85 409.40,590.60 411.15,591.65 413.60,592.00"/>
    </edge>
    <edge id=":C3_11" function="internal">
        <lane id=":C3_11_0" index="0" speed="13.89" length="27.20" shape="408.00,586.40 408.00,613.60"/>
        <lane id=":C3_11_1" index="1" speed="13.89" length="27.20" shape="404.80,586.40 404.80,613.60"/>
        <lane id=":C3_11_2" index="2" speed="13.89" length="27.20" shape="401.60,586.40 401.60,613.60"/>
    </edge>
    <edge id=":C3_14" function="internal">
        <lane id=":C3_14_0" index="0" speed="10.36" length="24.51" shape="401.60,586.40 400.65,593.05 397.80,597.80 393.05,600.65 386.40,601.60"/>
    </edge>
    <edge id=":C3_15" function="internal">
        <lane id=":C3_15_0" index="0" speed="6.51" length="9.03" shape="386.40,592.00 388.85,591.65 390.60,590.60 391.65,588.85 392.00,586.40"/>
    </edge>
    <edge id=":C3_16" function="internal">
        <lane id=":C3_16_0" index="0" speed="13.89" length="27.20" shape="386.40,592.00 413.60,592.00"/>
        <lane id=":C3_16_1" index="1" speed="13.89" length="27.20" shape="386.40,595.20 413.60,595.20"/>
        <lane id=":C3_16_2" index="2" speed="13.89" length="27.20" shape="386.40,598.40 413.60,598.40"/>
    </edge>
    <edge id=":C3_19" function="internal">
        <lane id=":C3_19_0" index="0" speed="10.36" length="24.51" shape="386.40,598.40 393.05,599.35 397.80,602.20 400.65,606.95 401.60,613.60"/>
    </edge>
    <edge id=":C4_0" function="internal">
        <lane id=":C4_0_0" index="0" speed="6.51" length="9.03" shape="392.00,813.60 391.65,811.15 390.60,809.40 388.85,808.35 386.40,808.00"/>
    </edge>
    <edge id=":C4_1" function="internal">
        <lane id=":C4_1_0" index="0" speed="13.89" length="27.20" shape="392.00,813.60 392.00,786.40"/>
        <lane id=":C4_1_1" index="1" speed="13.89" length="27.20" shape="395.20,813.60 395.20,786.40"/>
        <lane id=":C4_1_2" index="2" speed="13.89" length="27.20" shape="398.40,813.60 398.40,786.40"/>
    </edge>
    <edge id=":C4_4" function="internal">
        <lane id=":C4_4_0" index="0" speed="10.36" length="24.51" shape="398.40,813.60 399.35,806.95 402.20,802.20 406.95,799.35 413.60,798.40"/>
    </edge>
    <edge id=":C4_5" function="internal">
        <lane id=":C4_5_0" index="0" speed="6.51" length="9.03" shape="413.60,808.00 411.15,808.35 409.40,809.40 408.35,811.15 408.00,813.60"/>
    </edge>
    <edge id=":C4_6" function="internal">
        <lane id=":C4_6_0" index="0" speed="13.89" length="27.20" shape="413.60,808.00 386.40,808.00"/>
        <lane id=":C4_6_1" index="1" speed="13.89" length="27.20" shape="413.60,804.80 386.40,804.80"/>
        <lane id=":C4_6_2" index="2" speed="13.89" length="27.20" shape="413.60,801.60 386.40,801.60"/>
    </edge>
    <edge id=":C4_9" function="internal">
        <lane id=":C4_9_0" index="0" speed="10.36" length="24.51" shape="413.60,801.60 406.95,800.65 402.20,797.80 399.35,793.05 398.40,786.40"/>
    </edge>
    <edge id=":C4_10" function="internal">
        <lane id=":C4_10_0" index="0" speed="6.51" length="9.03" shape="408.00,786.40 408.35,788.85 409.40,790.60 411.15,791.65 413.60,792.00"/>
    </edge>
    <edge id=":C4_11" function="internal">
        <lane id=":C4_11_0" index="0" speed="13.89" length="27.20" shape="408.00,786.40 408.00,813.60"/>
        <lane id=":C4_11_1" index="1" speed="13.89" length="27.20" shape="404.80,786.40 404.80,813.60"/>
        <lane id=":C4_11_2" index="2" speed="13.89" length="27.20" shape="401.60,786.40 401.60,813.60"/>
    </edge>
    <edge id=":C4_14" function="internal">
        <lane id=":C4_14_0" index="0" speed="10.36" length="24.51" shape="401.60,786.40 400.65,793.05 397.80,797.80 393.05,800.65 386.40,801.60"/>
    </edge>
    <edge id=":C4_15" function="internal">
        <lane id=":C4_15_0" index="0" speed="6.51" length="9.03" shape="386.40,792.00 388.85,791.65 390.60,790.60 391.65,788.85 392.00,786.40"/>
    </edge>
    <edge id=":C4_16" function="internal">
        <lane id=":C4_16_0" index="0" speed="13.89" length="27.20" shape="386.40,792.00 413.60,792.00"/>
        <lane id=":C4_16_1" index="1" speed="13.89" length="27.20" shape="386.40,795.20 413.60,795.20"/>
        <lane id=":C4_16_2" index="2" speed="13.89" length="27.20" shape="386.40,798.40 413.60,798.40"/>
    </edge>
    <edge id=":C4_19" function="internal">
        <lane id=":C4_19_0" index="0" speed="10.36" length="24.51" shape="386.40,798.40 393.05,799.35 397.80,802.20 400.65,806.95 401.60,813.60"/>
    </edge>
    <edge id=":C5_0" function="internal">
        <lane id=":C5_0_0" index="0" speed="3.65" length="4.67" shape="401.60,1000.00 400.80,1001.20 400.00,1001.60 399.20,1001.20 398.40,1000.00"/>
    </edge>

    <edge id="A3B3" from="A3" to="B3" priority="-1">
        <lane id="A3B3_0" index="0" speed="13.89" length="186.40" shape="0.00,592.00 186.40,592.00"/>
        <lane id="A3B3_1" index="1" speed="13.89" length="186.40" shape="0.00,595.20 186.40,595.20"/>
        <lane id="A3B3_2" index="2" speed="13.89" length="186.40" shape="0.00,598.40 186.40,598.40"/>
    </edge>
    <edge id="A4B4" from="A4" to="B4" priority="-1">
        <lane id="A4B4_0" index="0" speed="13.89" length="186.40" shape="0.00,792.00 186.40,792.00"/>
        <lane id="A4B4_1" index="1" speed="13.89" length="186.40" shape="0.00,795.20 186.40,795.20"/>
        <lane id="A4B4_2" index="2" speed="13.89" length="186.40" shape="0.00,798.40 186.40,798.40"/>
    </edge>
    <edge id="B2B3" from="B2" to="B3" priority="-1">
        <lane id="B2B3_0" index="0" speed="13.89" length="186.40" shape="208.00,400.00 208.00,586.40"/>
        <lane id="B2B3_1" index="1" speed="13.89" length="186.40" shape="204.80,400.00 204.80,586.40"/>
        <lane id="B2B3_2" index="2" speed="13.89" length="186.40" shape="201.60,400.00 201.60,586.40"/>
    </edge>
    <edge id="B3A3" from="B3" to="A3" priority="-1">
        <lane id="B3A3_0" index="0" speed="13.89" length="186.40" shape="186.40,608.00 0.00,608.00"/>
        <lane id="B3A3_1" index="1" speed="13.89" length="186.40" shape="186.40,604.80 0.00,604.80"/>
        <lane id="B3A3_2" index="2" speed="13.89" length="186.40" shape="186.40,601.60 0.00,601.60"/>
    </edge>
    <edge id="B3B2" from="B3" to="B2" priority="-1">
        <lane id="B3B2_0" index="0" speed="13.89" length="186.40" shape="192.00,586.40 192.00,400.00"/>
        <lane id="B3B2_1" index="1" speed="13.89" length="186.40" shape="195.20,586.40 195.20,400.00"/>
        <lane id="B3B2_2" index="2" speed="13.89" length="186.40" shape="198.40,586.40 198.40,400.00"/>
    </edge>
    <edge id="B3B4" from="B3" to="B4" priority="-1">
        <lane id="B3B4_0" index="0" speed="13.89" length="172.80" shape="208.00,613.60 208.00,786.40"/>
        <lane id="B3B4_1" index="1" speed="13.89" length="172.80" shape="204.80,613.60 204.80,786.40"/>
        <lane id="B3B4_2" index="2" speed="13.89" length="172.80" shape="201.60,613.60 201.60,786.40"/>
    </edge>
    <edge id="B3C3" from="B3" to="C3" priority="-1">
        <lane id="B3C3_0" index="0" speed="13.89" length="172.80" shape="213.60,592.00 386.40,592.00"/>
        <lane id="B3C3_1" index="1" speed="13.89" length="172.80" shape="213.60,595.20 386.40,595.20"/>
        <lane id="B3C3_2" index="2" speed="13.89" length="172.80" shape="213.60,598.40 386.40,598.40"/>
    </edge>
    <edge id="B4A4" from="B4" to="A4" priority="-1" length="289.60">
        <lane id="B4A4_0" index="0" speed="13.89" length="289.60" shape="186.40,808.00 0.00,808.00"/>
        <lane id="B4A4_1" index="1" speed="13.89" length="289.60" shape="186.40,804.80 0.00,804.80"/>
        <lane id="B4A4_2" index="2" speed="13.89" length="289.60" shape="186.40,801.60 0.00,801.60"/>
    </edge>
    <edge id="B4B3" from="B4" to="B3" priority="-1">
        <lane id="B4B3_0" index="0" speed="13.89" length="172.80" shape="192.00,786.40 192.00,613.60"/>
        <lane id="B4B3_1" index="1" speed="13.89" length="172.80" shape="195.20,786.40 195.20,613.60"/>
        <lane id="B4B3_2" index="2" speed="13.89" length="172.80" shape="198.40,786.40 198.40,613.60"/>
    </edge>
    <edge id="B4B5" from="B4" to="B5" priority="-1" length="300.00">
        <lane id="B4B5_0" index="0" speed="13.89" length="300.00" shape="208.00,813.60 208.00,1000.00"/>
        <lane id="B4B5_1" index="1" speed="13.89" length="300.00" shape="204.80,813.60 204.80,1000.00"/>
        <lane id="B4B5_2" index="2" speed="13.89" length="300.00" shape="201.60,813.60 201.60,1000.00"/>
    </edge>
    <edge id="B4C4" from="B4" to="C4" priority="-1">
        <lane id="B4C4_0" index="0" speed="13.89" length="172.80" shape="213.60,792.00 386.40,792.00"/>
        <lane id="B4C4_1" index="1" speed="13.89" length="172.80" shape="213.60,795.20 386.40,795.20"/>
        <lane id="B4C4_2" index="2" speed="13.89" length="172.80" shape="213.60,798.40 386.40,798.40"/>
    </edge>
    <edge id="B5B4" from="B5" to="B4" priority="-1" length="300.00">
        <lane id="B5B4_0" index="0" speed="13.89" length="300.00" shape="192.00,1000.00 192.00,813.60"/>
        <lane id="B5B4_1" index="1" speed="13.89" length="300.00" shape="195.20,1000.00 195.20,813.60"/>
        <lane id="B5B4_2" index="2" speed="13.89" length="300.00" shape="198.40,1000.00 198.40,813.60"/>
    </edge>
    <edge id="C2C3" from="C2" to="C3" priority="-1">
        <lane id="C2C3_0" index="0" speed="13.89" length="186.40" shape="408.00,400.00 408.00,586.40"/>
        <lane id="C2C3_1" index="1" speed="13.89" length="186.40" shape="404.80,400.00 404.80,586.40"/>
        <lane id="C2C3_2" index="2" speed="13.89" length="186.40" shape="401.60,400.00 401.60,586.40"/>
    </edge>
    <edge id="C3B3" from="C3" to="B3" priority="-1">
        <lane id="C3B3_0" index="0" speed="13.89" length="172.80" shape="386.40,608.00 213.60,608.00"/>
        <lane id="C3B3_1" index="1" speed="13.89" length="172.80" shape="386.40,604.80 213.60,604.80"/>
        <lane id="C3B3_2" index="2" speed="13.89" length="172.80" shape="386.40,601.60 213.60,601.60"/>
    </edge>
    <edge id="C3C2" from="C3" to="C2" priority="-1">
        <lane id="C3C2_0" index="0" speed="13.89" length="186.40" shape="392.00,586.40 392.00,400.00"/>
        <lane id="C3C2_1" index="1" speed="13.89" length="186.40" shape="395.20,586.40 395.20,400.00"/>
        <lane id="C3C2_2" index="2" speed="13.89" length="186.40" shape="398.40,586.40 398.40,400.00"/>
    </edge>
    <edge id="C3C4" from="C3" to="C4" priority="-1">
        <lane id="C3C4_0" index="0" speed="13.89" length="172.80" shape="408.00,613.60 408.00,786.40"/>
        <lane id="C3C4_1" index="1" speed="13.89" length="172.80" shape="404.80,613.60 404.80,786.40"/>
        <lane id="C3C4_2" index="2" speed="13.89" length="172.80" shape="401.60,613.60 401.60,786.40"/>
    </edge>
    <edge id="C3D3" from="C3" to="D3" priority="-1">
        <lane id="C3D3_0" index="0" speed="13.89" length="186.40" shape="413.60,592.00 600.00,592.00"/>
        <lane id="C3D3_1" index="1" speed="13.89" length="186.40" shape="413.60,595.20 600.00,595.20"/>
        <lane id="C3D3_2" index="2" speed="13.89" length="186.40" shape="413.60,598.40 600.00,598.40"/>
    </edge>
    <edge id="C4B4" from="C4" to="B4" priority="-1">
        <lane id="C4B4_0" index="0" speed="13.89" length="172.80" shape="386.40,808.00 213.60,808.00"/>
        <lane id="C4B4_1" index="1" speed="13.89" length="172.80" shape="386.40,804.80 213.60,804.80"/>
        <lane id="C4B4_2" index="2" speed="13.89" length="172.80" shape="386.40,801.60 213.60,801.60"/>
    </edge>
    <edge id="C4C3" from="C4" to="C3" priority="-1">
        <lane id="C4C3_0" index="0" speed="13.89" length="172.80" shape="392.00,786.40 392.00,613.60"/>
        <lane id="C4C3_1" index="1" speed="13.89" length="172.80" shape="395.20,786.40 395.20,613.60"/>
        <lane id="C4C3_2" index="2" speed="13.89" length="172.80" shape="398.40,786.40 398.40,613.60"/>
    </edge>
    <edge id="C4C5" from="C4" to="C5" priority="-1">
        <lane id="C4C5_0" index="0" speed="13.89" length="186.40" shape="408.00,813.60 408.00,1000.00"/>
        <lane id="C4C5_1" index="1" speed="13.89" length="186.40" shape="404.80,813.60 404.80,1000.00"/>
        <lane id="C4C5_2" index="2" speed="13.89" length="186.40" shape="401.60,813.60 401.60,1000.00"/>
    </edge>
    <edge id="C4D4" from="C4" to="D4" priority="-1">
        <lane id="C4D4_0" index="0" speed="13.89" length="186.40" shape="413.60,792.00 600.00,792.00"/>
        <lane id="C4D4_1" index="1" speed="13.89" length="186.40" shape="413.60,795.20 600.00,795.20"/>
        <lane id="C4D4_2" index="2" speed="13.89" length="186.40" shape="413.60,798.40 600.00,798.40"/>
    </edge>
    <edge id="C5C4" from="C5" to="C4" priority="-1">
        <lane id="C5C4_0" index="0" speed="13.89" length="186.40" shape="392.00,1000.00 392.00,813.60"/>
        <lane id="C5C4_1" index="1" speed="13.89" length="186.40" shape="395.20,1000.00 395.20,813.60"/>
        <lane id="C5C4_2" index="2" speed="13.89" length="186.40" shape="398.40,1000.00 398.40,813.60"/>
    </edge>
    <edge id="D3C3" from="D3" to="C3" priority="-1">
        <lane id="D3C3_0" index="0" speed="13.89" length="186.40" shape="600.00,608.00 413.60,608.00"/>
        <lane id="D3C3_1" index="1" speed="13.89" length="186.40" shape="600.00,604.80 413.60,604.80"/>
        <lane id="D3C3_2" index="2" speed="13.89" length="186.40" shape="600.00,601.60 413.60,601.60"/>
    </edge>
    <edge id="D4C4" from="D4" to="C4" priority="-1">
        <lane id="D4C4_0" index="0" speed="13.89" length="186.40" shape="600.00,808.00 413.60,808.00"/>
        <lane id="D4C4_1" index="1" speed="13.89" length="186.40" shape="600.00,804.80 413.60,804.80"/>
        <lane id="D4C4_2" index="2" speed="13.89" length="186.40" shape="600.00,801.60 413.60,801.60"/>
    </edge>

    <tlLogic id="B3" type="static" programID="0" offset="0">
        <phase duration="20" state="GGGGrrrrrrGGGGrrrrrr"/>
        <phase duration="3"  state="yyyyrrrrrryyyyrrrrrr"/>
        <phase duration="10" state="rrrrGrrrrrrrrrGrrrrr"/>
        <phase duration="3"  state="rrrryrrrrrrrrryrrrrr"/>
        <phase duration="20" state="rrrrrGGGGrrrrrrGGGGr"/>
        <phase duration="3"  state="rrrrryyyyrrrrrryyyyr"/>
        <phase duration="10" state="rrrrrrrrrGrrrrrrrrrG"/>
        <phase duration="3"  state="rrrrrrrrryrrrrrrrrry"/>
    </tlLogic>
    <tlLogic id="B4" type="static" programID="0" offset="0">
        <phase duration="20" state="GGGGrrrrrrGGGGrrrrrr"/>
        <phase duration="3"  state="yyyyrrrrrryyyyrrrrrr"/>
        <phase duration="10" state="rrrrGrrrrrrrrrGrrrrr"/>
        <phase duration="3"  state="rrrryrrrrrrrrryrrrrr"/>
        <phase duration="20" state="rrrrrGGGGrrrrrrGGGGr"/>
        <phase duration="3"  state="rrrrryyyyrrrrrryyyyr"/>
        <phase duration="10" state="rrrrrrrrrGrrrrrrrrrG"/>
        <phase duration="3"  state="rrrrrrrrryrrrrrrrrry"/>
    </tlLogic>
    <tlLogic id="C3" type="static" programID="0" offset="0">
        <phase duration="20" state="GGGGrrrrrrGGGGrrrrrr"/>
        <phase duration="3"  state="yyyyrrrrrryyyyrrrrrr"/>
        <phase duration="10" state="rrrrGrrrrrrrrrGrrrrr"/>
        <phase duration="3"  state="rrrryrrrrrrrrryrrrrr"/>
        <phase duration="20" state="rrrrrGGGGrrrrrrGGGGr"/>
        <phase duration="3"  state="rrrrryyyyrrrrrryyyyr"/>
        <phase duration="10" state="rrrrrrrrrGrrrrrrrrrG"/>
        <phase duration="3"  state="rrrrrrrrryrrrrrrrrry"/>
    </tlLogic>
    <tlLogic id="C4" type="static" programID="0" offset="0">
        <phase duration="20" state="GGGGrrrrrrGGGGrrrrrr"/>
        <phase duration="3"  state="yyyyrrrrrryyyyrrrrrr"/>
        <phase duration="10" state="rrrrGrrrrrrrrrGrrrrr"/>
        <phase duration="3"  state="rrrryrrrrrrrrryrrrrr"/>
        <phase duration="20" state="rrrrrGGGGrrrrrrGGGGr"/>
        <phase duration="3"  state="rrrrryyyyrrrrrryyyyr"/>
        <phase duration="10" state="rrrrrrrrrGrrrrrrrrrG"/>
        <phase duration="3"  state="rrrrrrrrryrrrrrrrrry"/>
    </tlLogic>

    <junction id="A3" type="priority" x="0.00" y="600.00" incLanes="B3A3_0 B3A3_1 B3A3_2" intLanes=":A3_0_0" shape="0.00,600.00 0.00,609.60 0.00,600.00">
        <request index="0" response="0" foes="0" cont="0"/>
    </junction>
    <junction id="A4" type="priority" x="0.00" y="800.00" incLanes="B4A4_0 B4A4_1 B4A4_2" intLanes=":A4_0_0" shape="0.00,800.00 0.00,809.60 0.00,800.00">
        <request index="0" response="0" foes="0" cont="0"/>
    </junction>
    <junction id="B2" type="dead_end" x="200.00" y="400.00" incLanes="B3B2_0 B3B2_1 B3B2_2" intLanes="" shape="200.00,400.00 190.40,400.00 200.00,400.00"/>
    <junction id="B3" type="traffic_light" x="200.00" y="600.00" incLanes="B4B3_0 B4B3_1 B4B3_2 C3B3_0 C3B3_1 C3B3_2 B2B3_0 B2B3_1 B2B3_2 A3B3_0 A3B3_1 A3B3_2" intLanes=":B3_0_0 :B3_1_0 :B3_1_1 :B3_1_2 :B3_4_0 :B3_5_0 :B3_6_0 :B3_6_1 :B3_6_2 :B3_9_0 :B3_10_0 :B3_11_0 :B3_11_1 :B3_11_2 :B3_14_0 :B3_15_0 :B3_16_0 :B3_16_1 :B3_16_2 :B3_19_0" shape="190.40,613.60 209.60,613.60 210.04,611.38 210.60,610.60 211.38,610.04 212.38,609.71 213.60,609.60 213.60,590.40 211.38,589.96 210.60,589.40 210.04,588.62 209.71,587.62 209.60,586.40 190.40,586.40 189.96,588.62 189.40,589.40 188.62,589.96 187.62,590.29 186.40,590.40 186.40,609.60 188.62,610.04 189.40,610.60 189.96,611.38 190.29,612.38">
        <request index="0"  response="00000000000000000000" foes="00000000000111000000" cont="0"/>
        <request index="1"  response="00000000000000000000" foes="11111100001111000000" cont="0"/>
        <request index="2"  response="00000000000000000000" foes="11111100001111000000" cont="0"/>
        <request index="3"  response="00000000000000000000" foes="11111100001111000000" cont="0"/>
        <request index="4"  response="00000011100000000000" foes="11110011101111000000" cont="0"/>
        <request index="5"  response="00000011100000000000" foes="00000011100000000000" cont="0"/>
        <request index="6"  response="00000111100000011111" foes="10000111100000011111" cont="0"/>
        <request index="7"  response="00000111100000011111" foes="10000111100000011111" cont="0"/>
        <request index="8"  response="00000111100000011111" foes="10000111100000011111" cont="0"/>
        <request index="9"  response="01110111100000011110" foes="01110111100000011110" cont="0"/>
        <request index="10" response="00000000000000000000" foes="01110000000000000000" cont="0"/>
        <request index="11" response="00000000000000000000" foes="11110000001111110000" cont="0"/>
        <request index="12" response="00000000000000000000" foes="11110000001111110000" cont="0"/>
        <request index="13" response="00000000000000000000" foes="11110000001111110000" cont="0"/>
        <request index="14" response="00000000000000001110" foes="11110000001111001110" cont="0"/>
        <request index="15" response="00000000000000001110" foes="00000000000000001110" cont="0"/>
        <request index="16" response="00000111110000011110" foes="00000111111000011110" cont="0"/>
        <request index="17" response="00000111110000011110" foes="00000111111000011110" cont="0"/>
        <request index="18" response="00000111110000011110" foes="00000111111000011110" cont="0"/>
        <request index="19" response="00000111100111011110" foes="00000111100111011110" cont="0"/>
    </junction>