<?xml version="1.0" encoding="UTF-8"?>

<!-- generated on 2023-08-30 12:53:21 by Eclipse SUMO netedit Version 1.18.0
<configuration xmlns:xsi="http://www.w3.org/2001/XMLSchema-instance" xsi:noNamespaceSchemaLocation="http://sumo.dlr.de/xsd/neteditConfiguration.xsd">

    <input>
        <sumo-net-file value="C:\Users\23518\Desktop\RL_signal_V0.4\sumo_files\4gridnet.net.xml"/>
    </input>

    <output>
        <output-file value="C:\Users\23518\Desktop\RL_signal_V0.4\sumo_files\4gridnet.net.xml"/>
    </output>

    <processing>
        <geometry.min-radius.fix.railways value="false"/>
        <geometry.max-grade.fix value="false"/>
        <offset.disable-normalization value="true"/>
        <lefthand value="0"/>
    </processing>

    <junctions>
        <no-turnarounds value="true"/>
        <junctions.corner-detail value="5"/>
        <junctions.limit-turn-speed value="5.50"/>
        <rectangular-lane-cut value="0"/>
    </junctions>

    <pedestrian>
        <walkingareas value="0"/>
    </pedestrian>

</configuration>
-->

<net version="1.16" junctionCornerDetail="5" limitTurnSpeed="5.50" xmlns:xsi="http://www.w3.org/2001/XMLSchema-instance" xsi:noNamespaceSchemaLocation="http://sumo.dlr.de/xsd/net_file.xsd">

    <location netOffset="0.00,0.00" convBoundary="-100.00,-100.00,1100.00,1100.00" origBoundary="0.00,0.00,1000.00,1000.00" projParameter="!"/>

    <edge id=":A1_0" function="internal">
        <lane id=":A1_0_0" index="0" speed="3.65" length="4.67" shape="-100.00,201.60 -101.20,200.80 -101.60,200.00 -101.20,199.20 -100.00,198.40"/>
    </edge>
    <edge id=":A2_0" function="internal">
        <lane id=":A2_0_0" index="0" speed="3.65" length="4.67" shape="-100.00,401.60 -101.20,400.80 -101.60,400.00 -101.20,399.20 -100.00,398.40"/>
    </edge>
    <edge id=":A3_0" function="internal">
        <lane id=":A3_0_0" index="0" speed="3.65" length="4.67" shape="-100.00,601.60 -101.20,600.80 -101.60,600.00 -101.20,599.20 -100.00,598.40"/>
    </edge>
    <edge id=":A4_0" function="internal">
        <lane id=":A4_0_0" index="0" speed="3.65" length="4.67" shape="-100.00,801.60 -101.20,800.80 -101.60,800.00 -101.20,799.20 -100.00,798.40"/>
    </edge>
    <edge id=":B0_0" function="internal">
        <lane id=":B0_0_0" index="0" speed="3.65" length="4.67" shape="198.40,-100.00 199.20,-101.20 200.00,-101.60 200.80,-101.20 201.60,-100.00"/>
    </edge>
    <edge id=":B1_0" function="internal">
        <lane id=":B1_0_0" index="0" speed="6.51" length="9.03" shape="195.20,210.40 194.85,207.95 193.80,206.20 192.05,205.15 189.60,204.80"/>
    </edge>
    <edge id=":B1_1" function="internal">
        <lane id=":B1_1_0" index="0" speed="13.89" length="20.80" shape="195.20,210.40 195.20,189.60"/>
        <lane id=":B1_1_1" index="1" speed="13.89" length="20.80" shape="198.40,210.40 198.40,189.60"/>
    </edge>
    <edge id=":B1_3" function="internal">
        <lane id=":B1_3_0" index="0" speed="9.26" length="19.35" shape="198.40,210.40 199.15,205.15 201.40,201.40 205.15,199.15 210.40,198.40"/>
    </edge>
    <edge id=":B1_4" function="internal">
        <lane id=":B1_4_0" index="0" speed="6.51" length="9.03" shape="210.40,204.80 207.95,205.15 206.20,206.20 205.15,207.95 204.80,210.40"/>
    </edge>
    <edge id=":B1_5" function="internal">
        <lane id=":B1_5_0" index="0" speed="13.89" length="20.80" shape="210.40,204.80 189.60,204.80"/>
        <lane id=":B1_5_1" index="1" speed="13.89" length="20.80" shape="210.40,201.60 189.60,201.60"/>
    </edge>
    <edge id=":B1_7" function="internal">
        <lane id=":B1_7_0" index="0" speed="9.26" length="19.35" shape="210.40,201.60 205.15,200.85 201.40,198.60 199.15,194.85 198.40,189.60"/>
    </edge>
    <edge id=":B1_8" function="internal">
        <lane id=":B1_8_0" index="0" speed="6.51" length="9.03" shape="204.80,189.60 205.15,192.05 206.20,193.80 207.95,194.85 210.40,195.20"/>
    </edge>
    <edge id=":B1_9" function="internal">
        <lane id=":B1_9_0" index="0" speed="13.89" length="20.80" shape="204.80,189.60 204.80,210.40"/>
        <lane id=":B1_9_1" index="1" speed="13.89" length="20.80" shape="201.60,189.60 201.60,210.40"/>
    </edge>
    <edge id=":B1_11" function="internal">
        <lane id=":B1_11_0" index="0" speed="9.26" length="19.35" shape="201.60,189.60 200.85,194.85 198.60,198.60 194.85,200.85 189.60,201.60"/>
    </edge>
    <edge id=":B1_12" function="internal">
        <lane id=":B1_12_0" index="0" speed="6.51" length="9.03" shape="189.60,195.20 192.05,194.85 193.80,193.80 194.85,192.05 195.20,189.60"/>
    </edge>
    <edge id=":B1_13" function="internal">
        <lane id=":B1_13_0" index="0" speed="13.89" length="20.80" shape="189.60,195.20 210.40,195.20"/>
        <lane id=":B1_13_1" index="1" speed="13.89" length="20.80" shape="189.60,198.40 210.40,198.40"/>
    </edge>
    <edge id=":B1_15" function="internal">
        <lane id=":B1_15_0" index="0" speed="9.26" length="19.35" shape="189.60,198.40 194.85,199.15 198.60,201.40 200.85,205.15 201.60,210.40"/>
    </edge>
    <edge id=":B2_0" function="internal">
        <lane id=":B2_0_0" index="0" speed="6.51" length="9.03" shape="195.20,410.40 194.85,407.95 193.80,406.20 192.05,405.15 189.60,404.80"/>
    </edge>
    <edge id=":B2_1" function="internal">
        <lane id=":B2_1_0" index="0" speed="13.89" length="20.80" shape="195.20,410.40 195.20,389.60"/>
        <lane id=":B2_1_1" index="1" speed="13.89" length="20.80" shape="198.40,410.40 198.40,389.60"/>
    </edge>
    <edge id=":B2_3" function="internal">
        <lane id=":B2_3_0" index="0" speed="9.26" length="19.35" shape="198.40,410.40 199.15,405.15 201.40,401.40 205.15,399.15 210.40,398.40"/>
    </edge>
    <edge id=":B2_4" function="internal">
        <lane id=":B2_4_0" index="0" speed="6.51" length="9.03" shape="210.40,404.80 207.95,405.15 206.20,406.20 205.15,407.95 204.80,410.40"/>
    </edge>
    <edge id=":B2_5" function="internal">
        <lane id=":B2_5_0" index="0" speed="13.89" length="20.80" shape="210.40,404.80 189.60,404.80"/>
        <lane id=":B2_5_1" index="1" speed="13.89" length="20.80" shape="210.40,401.60 189.60,401.60"/>
    </edge>
    <edge id=":B2_7" function="internal">
        <lane id=":B2_7_0" index="0" speed="9.26" length="19.35" shape="210.40,401.60 205.15,400.85 201.40,398.60 199.15,394.85 198.40,389.60"/>
    </edge>
    <edge id=":B2_8" function="internal">
        <lane id=":B2_8_0" index="0" speed="6.51" length="9.03" shape="204.80,389.60 205.15,392.05 206.20,393.80 207.95,394.85 210.40,395.20"/>
    </edge>
    <edge id=":B2_9" function="internal">
        <lane id=":B2_9_0" index="0" speed="13.89" length="20.80" shape="204.80,389.60 204.80,410.40"/>
        <lane id=":B2_9_1" index="1" speed="13.89" length="20.80" shape="201.60,389.60 201.60,410.40"/>
    </edge>
    <edge id=":B2_11" function="internal">
        <lane id=":B2_11_0" index="0" speed="9.26" length="19.35" shape="201.60,389.60 200.85,394.85 198.60,398.60 194.85,400.85 189.60,401.60"/>
    </edge>
    <edge id=":B2_12" function="internal">
        <lane id=":B2_12_0" index="0" speed="6.51" length="9.03" shape="189.60,395.20 192.05,394.85 193.80,393.80 194.85,392.05 195.20,389.60"/>
    </edge>
    <edge id=":B2_13" function="internal">
        <lane id=":B2_13_0" index="0" speed="13.89" length="20.80" shape="189.60,395.20 210.40,395.20"/>
        <lane id=":B2_13_1" index="1" speed="13.89" length="20.80" shape="189.60,398.40 210.40,398.40"/>
    </edge>
    <edge id=":B2_15" function="internal">
        <lane id=":B2_15_0" index="0" speed="9.26" length="19.35" shape="189.60,398.40 194.85,399.15 198.60,401.40 200.85,405.15 201.60,410.40"/>
    </edge>
    <edge id=":B3_0" function="internal">
        <lane id=":B3_0_0" index="0" speed="6.51" length="9.03" shape="195.20,610.40 194.85,607.95 193.80,606.20 192.05,605.15 189.60,604.80"/>
    </edge>
    <edge id=":B3_1" function="internal">
        <lane id=":B3_1_0" index="0" speed="13.89" length="20.80" shape="195.20,610.40 195.20,589.60"/>
        <lane id=":B3_1_1" index="1" speed="13.89" length="20.80" shape="198.40,610.40 198.40,589.60"/>
    </edge>
    <edge id=":B3_3" function="internal">
        <lane id=":B3_3_0" index="0" speed="9.26" length="19.35" shape="198.40,610.40 199.15,605.15 201.40,601.40 205.15,599.15 210.40,598.40"/>
    </edge>
    <edge id=":B3_4" function="internal">
        <lane id=":B3_4_0" index="0" speed="6.51" length="9.03" shape="210.40,604.80 207.95,605.15 206.20,606.20 205.15,607.95 204.80,610.40"/>
    </edge>
    <edge id=":B3_5" function="internal">
        <lane id=":B3_5_0" index="0" speed="13.89" length="20.80" shape="210.40,604.80 189.60,604.80"/>
        <lane id=":B3_5_1" index="1" speed="13.89" length="20.80" shape="210.40,601.60 189.60,601.60"/>
    </edge>
    <edge id=":B3_7" function="internal">
        <lane id=":B3_7_0" index="0" speed="9.26" length="19.35" shape="210.40,601.60 205.15,600.85 201.40,598.60 199.15,594.85 198.40,589.60"/>
    </edge>
    <edge id=":B3_8" function="internal">
        <lane id=":B3_8_0" index="0" speed="6.51" length="9.03" shape="204.80,589.60 205.15,592.05 206.20,593.80 207.95,594.85 210.40,595.20"/>
    </edge>
    <edge id=":B3_9" function="internal">
        <lane id=":B3_9_0" index="0" speed="13.89" length="20.80" shape="204.80,589.60 204.80,610.40"/>
        <lane id=":B3_9_1" index="1" speed="13.89" length="20.80" shape="201.60,589.60 201.60,610.40"/>
    </edge>
    <edge id=":B3_11" function="internal">
        <lane id=":B3_11_0" index="0" speed="9.26" length="19.35" shape="201.60,589.60 200.85,594.85 198.60,598.60 194.85,600.85 189.60,601.60"/>
    </edge>
    <edge id=":B3_12" function="internal">
        <lane id=":B3_12_0" index="0" speed="6.51" length="9.03" shape="189.60,595.20 192.05,594.85 193.80,593.80 194.85,592.05 195.20,589.60"/>
    </edge>
    <edge id=":B3_13" function="internal">
        <lane id=":B3_13_0" index="0" speed="13.89" length="20.80" shape="189.60,595.20 210.40,595.20"/>
        <lane id=":B3_13_1" index="1" speed="13.89" length="20.80" shape="189.60,598.40 210.40,598.40"/>
    </edge>
    <edge id=":B3_15" function="internal">
        <lane id=":B3_15_0" index="0" speed="9.26" length="19.35" shape="189.60,598.40 194.85,599.15 198.60,601.40 200.85,605.15 201.60,610.40"/>
    </edge>
    <edge id=":B4_0" function="internal">
        <lane id=":B4_0_0" index="0" speed="6.51" length="9.03" shape="195.20,810.40 194.85,807.95 193.80,806.20 192.05,805.15 189.60,804.80"/>
    </edge>
    <edge id=":B4_1" function="internal">
        <lane id=":B4_1_0" index="0" speed="13.89" length="20.80" shape="195.20,810.40 195.20,789.60"/>
        <lane id=":B4_1_1" index="1" speed="13.89" length="20.80" shape="198.40,810.40 198.40,789.60"/>
    </edge>
    <edge id=":B4_3" function="internal">
        <lane id=":B4_3_0" index="0" speed="9.26" length="19.35" shape="198.40,810.40 199.15,805.15 201.40,801.40 205.15,799.15 210.40,798.40"/>
    </edge>
    <edge id=":B4_4" function="internal">
        <lane id=":B4_4_0" index="0" speed="6.51" length="9.03" shape="210.40,804.80 207.95,805.15 206.20,806.20 205.15,807.95 204.80,810.40"/>
    </edge>
    <edge id=":B4_5" function="internal">
        <lane id=":B4_5_0" index="0" speed="13.89" length="20.80" shape="210.40,804.80 189.60,804.80"/>
        <lane id=":B4_5_1" index="1" speed="13.89" length="20.80" shape="210.40,801.60 189.60,801.60"/>
    </edge>
    <edge id=":B4_7" function="internal">
        <lane id=":B4_7_0" index="0" speed="9.26" length="19.35" shape="210.40,801.60 205.15,800.85 201.40,798.60 199.15,794.85 198.40,789.60"/>
    </edge>
    <edge id=":B4_8" function="internal">
        <lane id=":B4_8_0" index="0" speed="6.51" length="9.03" shape="204.80,789.60 205.15,792.05 206.20,793.80 207.95,794.85 210.40,795.20"/>
    </edge>
    <edge id=":B4_9" function="internal">
        <lane id=":B4_9_0" index="0" speed="13.89" length="20.80" shape="204.80,789.60 204.80,810.40"/>
        <lane id=":B4_9_1" index="1" speed="13.89" length="20.80" shape="201.60,789.60 201.60,810.40"/>
    </edge>
    <edge id=":B4_11" function="internal">
        <lane id=":B4_11_0" index="0" speed="9.26" length="19.35" shape="201.60,789.60 200.85,794.85 198.60,798.60 194.85,800.85 189.60,801.60"/>
    </edge>
    <edge id=":B4_12" function="internal">
        <lane id=":B4_12_0" index="0" speed="6.51" length="9.03" shape="189.60,795.20 192.05,794.85 193.80,793.80 194.85,792.05 195.20,789.60"/>
    </edge>
    <edge id=":B4_13" function="internal">
        <lane id=":B4_13_0" index="0" speed="13.89" length="20.80" shape="189.60,795.20 210.40,795.20"/>
        <lane id=":B4_13_1" index="1" speed="13.89" length="20.80" shape="189.60,798.40 210.40,798.40"/>
    </edge>
    <edge id=":B4_15" function="internal">
        <lane id=":B4_15_0" index="0" speed="9.26" length="19.35" shape="189.60,798.40 194.85,799.15 198.60,801.40 200.85,805.15 201.60,810.40"/>
    </edge>
    <edge id=":B5_0" function="internal">
        <lane id=":B5_0_0" index="0" speed="3.65" length="4.67" shape="201.60,1100.00 200.80,1101.20 200.00,1101.60 199.20,1101.20 198.40,1100.00"/>
    </edge>
    <edge id=":C0_0" function="internal">
        <lane id=":C0_0_0" index="0" speed="3.65" length="4.67" shape="398.40,-100.00 399.20,-101.20 400.00,-101.60 400.80,-101.20 401.60,-100.00"/>
    </edge>
    <edge id=":C1_0" function="internal">
        <lane id=":C1_0_0" index="0" speed="6.51" length="9.03" shape="395.20,210.40 394.85,207.95 393.80,206.20 392.05,205.15 389.60,204.80"/>
    </edge>
    <edge id=":C1_1" function="internal">
        <lane id=":C1_1_0" index="0" speed="13.89" length="20.80" shape="395.20,210.40 395.20,189.60"/>
        <lane id=":C1_1_1" index="1" speed="13.89" length="20.80" shape="398.40,210.40 398.40,189.60"/>
    </edge>
    <edge id=":C1_3" function="internal">
        <lane id=":C1_3_0" index="0" speed="9.26" length="19.35" shape="398.40,210.40 399.15,205.15 401.40,201.40 405.15,199.15 410.40,198.40"/>
    </edge>
    <edge id=":C1_4" function="internal">
        <lane id=":C1_4_0" index="0" speed="6.51" length="9.03" shape="410.40,204.80 407.95,205.15 406.20,206.20 405.15,207.95 404.80,210.40"/>
    </edge>
    <edge id=":C1_5" function="internal">
        <lane id=":C1_5_0" index="0" speed="13.89" length="20.80" shape="410.40,204.80 389.60,204.80"/>
        <lane id=":C1_5_1" index="1" speed="13.89" length="20.80" shape="410.40,201.60 389.60,201.60"/>
    </edge>
    <edge id=":C1_7" function="internal">
        <lane id=":C1_7_0" index="0" speed="9.26" length="19.35" shape="410.40,201.60 405.15,200.85 401.40,198.60 399.15,194.85 398.40,189.60"/>
    </edge>
    <edge id=":C1_8" function="internal">
        <lane id=":C1_8_0" index="0" speed="6.51" length="9.03" shape="404.80,189.60 405.15,192.05 406.20,193.80 407.95,194.85 410.40,195.20"/>
    </edge>
    <edge id=":C1_9" function="internal">
        <lane id=":C1_9_0" index="0" speed="13.89" length="20.80" shape="404.80,189.60 404.80,210.40"/>
        <lane id=":C1_9_1" index="1" speed="13.89" length="20.80" shape="401.60,189.60 401.60,210.40"/>
    </edge>
    <edge id=":C1_11" function="internal">
        <lane id=":C1_11_0" index="0" speed="9.26" length="19.35" shape="401.60,189.60 400.85,194.85 398.60,198.60 394.85,200.85 389.60,201.60"/>
    </edge>
    <edge id=":C1_12" function="internal">
        <lane id=":C1_12_0" index="0" speed="6.51" length="9.03" shape="389.60,195.20 392.05,194.85 393.80,193.80 394.85,192.05 395.20,189.60"/>
    </edge>
    <edge id=":C1_13" function="internal">
        <lane id=":C1_13_0" index="0" speed="13.89" length="20.80" shape="389.60,195.20 410.40,195.20"/>
        <lane id=":C1_13_1" index="1" speed="13.89" length="20.80" shape="389.60,198.40 410.40,198.40"/>
    </edge>
    <edge id=":C1_15" function="internal">
        <lane id=":C1_15_0" index="0" speed="9.26" length="19.35" shape="389.60,198.40 394.85,199.15 398.60,201.40 400.85,205.15 401.60,210.40"/>
    </edge>
    <edge id=":C2_0" function="internal">
        <lane id=":C2_0_0" index="0" speed="6.51" length="9.03" shape="395.20,410.40 394.85,407.95 393.80,406.20 392.05,405.15 389.60,404.80"/>
    </edge>
    <edge id=":C2_1" function="internal">
        <lane id=":C2_1_0" index="0" speed="13.89" length="20.80" shape="395.20,410.40 395.20,389.60"/>
        <lane id=":C2_1_1" index="1" speed="13.89" length="20.80" shape="398.40,410.40 398.40,389.60"/>
    </edge>
    <edge id=":C2_3" function="internal">
        <lane id=":C2_3_0" index="0" speed="9.26" length="19.35" shape="398.40,410.40 399.15,405.15 401.40,401.40 405.15,399.15 410.40,398.40"/>
    </edge>
    <edge id=":C2_4" function="internal">
        <lane id=":C2_4_0" index="0" speed="6.51" length="9.03" shape="410.40,404.80 407.95,405.15 406.20,406.20 405.15,407.95 404.80,410.40"/>
    </edge>
    <edge id=":C2_5" function="internal">
        <lane id=":C2_5_0" index="0" speed="13.89" length="20.80" shape="410.40,404.80 389.60,404.80"/>
        <lane id=":C2_5_1" index="1" speed="13.89" length="20.80" shape="410.40,401.60 389.60,401.60"/>
    </edge>
    <edge id=":C2_7" function="internal">
        <lane id=":C2_7_0" index="0" speed="9.26" length="19.35" shape="410.40,401.60 405.15,400.85 401.40,398.60 399.15,394.85 398.40,389.60"/>
    </edge>
    <edge id=":C2_8" function="internal">
        <lane id=":C2_8_0" index="0" speed="6.51" length="9.03" shape="404.80,389.60 405.15,392.05 406.20,393.80 407.95,394.85 410.40,395.20"/>
    </edge>
    <edge id=":C2_9" function="internal">
        <lane id=":C2_9_0" index="0" speed="13.89" length="20.80" shape="404.80,389.60 404.80,410.40"/>
        <lane id=":C2_9_1" index="1" speed="13.89" length="20.80" shape="401.60,389.60 401.60,410.40"/>
    </edge>
    <edge id=":C2_11" function="internal">
        <lane id=":C2_11_0" index="0" speed="9.26" length="19.35" shape="401.60,389.60 400.85,394.85 398.60,398.60 394.85,400.85 389.60,401.60"/>
    </edge>
    <edge id=":C2_12" function="internal">
        <lane id=":C2_12_0" index="0" speed="6.51" length="9.03" shape="389.60,395.20 392.05,394.85 393.80,393.80 394.85,392.05 395.20,389.60"/>
    </edge>
    <edge id=":C2_13" function="internal">
        <lane id=":C2_13_0" index="0" speed="13.89" length="20.80" shape="389.60,395.20 410.40,395.20"/>
        <lane id=":C2_13_1" index="1" speed="13.89" length="20.80" shape="389.60,398.40 410.40,398.40"/>
    </edge>
    <edge id=":C2_15" function="internal">
        <lane id=":C2_15_0" index="0" speed="9.26" length="19.35" shape="389.60,398.40 394.85,399.15 398.60,401.40 400.85,405.15 401.60,410.40"/>
    </edge>
    <edge id=":C3_0" function="internal">
        <lane id=":C3_0_0" index="0" speed="6.51" length="9.03" shape="395.20,610.40 394.85,607.95 393.80,606.20 392.05,605.15 389.60,604.80"/>
    </edge>
    <edge id=":C3_1" function="internal">
        <lane id=":C3_1_0" index="0" speed="13.89" length="20.80" shape="395.20,610.40 395.20,589.60"/>
        <lane id=":C3_1_1" index="1" speed="13.89" length="20.80" shape="398.40,610.40 398.40,589.60"/>
    </edge>
    <edge id=":C3_3" function="internal">
        <lane id=":C3_3_0" index="0" speed="9.26" length="19.35" shape="398.40,610.40 399.15,605.15 401.40,601.40 405.15,599.15 410.40,598.40"/>
    </edge>
    <edge id=":C3_4" function="internal">
        <lane id=":C3_4_0" index="0" speed="6.51" length="9.03" shape="410.40,604.80 407.95,605.15 406.20,606.20 405.15,607.95 404.80,610.40"/>
    </edge>
    <edge id=":C3_5" function="internal">
        <lane id=":C3_5_0" index="0" speed="13.89" length="20.80" shape="410.40,604.80 389.60,604.80"/>
        <lane id=":C3_5_1" index="1" speed="13.89" length="20.80" shape="410.40,601.60 389.60,601.60"/>
    </edge>
    <edge id=":C3_7" function="internal">
        <lane id=":C3_7_0" index="0" speed="9.26" length="19.35" shape="410.40,601.60 405.15,600.85 401.40,598.60 399.15,594.85 398.40,589.60"/>
    </edge>
    <edge id=":C3_8" function="internal">
        <lane id=":C3_8_0" index="0" speed="6.51" length="9.03" shape="404.80,589.60 405.15,592.05 406.20,593.80 407.95,594.85 410.40,595.20"/>
    </edge>
    <edge id=":C3_9" function="internal">
        <lane id=":C3_9_0" index="0" speed="13.89" length="20.80" shape="404.80,589.60 404.80,610.40"/>
        <lane id=":C3_9_1" index="1" speed="13.89" length="20.80" shape="401.60,589.60 401.60,610.40"/>
    </edge>
    <edge id=":C3_11" function="internal">
        <lane id=":C3_11_0" index="0" speed="9.26" length="19.35" shape="401.60,589.60 400.85,594.85 398.60,598.60 394.85,600.85 389.60,601.60"/>
    </edge>
    <edge id=":C3_12" function="internal">
        <lane id=":C3_12_0" index="0" speed="6.51" length="9.03" shape="389.60,595.20 392.05,594.85 393.80,593.80 394.85,592.05 395.20,589.60"/>
    </edge>
    <edge id=":C3_13" function="internal">
        <lane id=":C3_13_0" index="0" speed="13.89" length="20.80" shape="389.60,595.20 410.40,595.20"/>
        <lane id=":C3_13_1" index="1" speed="13.89" length="20.80" shape="389.60,598.40 410.40,598.40"/>
    </edge>
    <edge id=":C3_15" function="internal">
        <lane id=":C3_15_0" index="0" speed="9.26" length="19.35" shape="389.60,598.40 394.85,599.15 398.60,601.40 400.85,605.15 401.60,610.40"/>
    </edge>
    <edge id=":C4_0" function="internal">
        <lane id=":C4_0_0" index="0" speed="6.51" length="9.03" shape="395.20,810.40 394.85,807.95 393.80,806.20 392.05,805.15 389.60,804.80"/>
    </edge>
    <edge id=":C4_1" function="internal">
        <lane id=":C4_1_0" index="0" speed="13.89" length="20.80" shape="395.20,810.40 395.20,789.60"/>
        <lane id=":C4_1_1" index="1" speed="13.89" length="20.80" shape="398.40,810.40 398.40,789.60"/>
    </edge>
    <edge id=":C4_3" function="internal">
        <lane id=":C4_3_0" index="0" speed="9.26" length="19.35" shape="398.40,810.40 399.15,805.15 401.40,801.40 405.15,799.15 410.40,798.40"/>
    </edge>
    <edge id=":C4_4" function="internal">
        <lane id=":C4_4_0" index="0" speed="6.51" length="9.03" shape="410.40,804.80 407.95,805.15 406.20,806.20 405.15,807.95 404.80,810.40"/>
    </edge>
    <edge id=":C4_5" function="internal">
        <lane id=":C4_5_0" index="0" speed="13.89" length="20.80" shape="410.40,804.80 389.60,804.80"/>
        <lane id=":C4_5_1" index="1" speed="13.89" length="20.80" shape="410.40,801.60 389.60,801.60"/>
    </edge>
    <edge id=":C4_7" function="internal">
        <lane id=":C4_7_0" index="0" speed="9.26" length="19.35" shape="410.40,801.60 405.15,800.85 401.40,798.60 399.15,794.85 398.40,789.60"/>
    </edge>
    <edge id=":C4_8" function="internal">
        <lane id=":C4_8_0" index="0" speed="6.51" length="9.03" shape="404.80,789.60 405.15,792.05 406.20,793.80 407.95,794.85 410.40,795.20"/>
    </edge>
    <edge id=":C4_9" function="internal">
        <lane id=":C4_9_0" index="0" speed="13.89" length="20.80" shape="404.80,789.60 404.80,810.40"/>
        <lane id=":C4_9_1" index="1" speed="13.89" length="20.80" shape="401.60,789.60 401.60,810.40"/>
    </edge>
    <edge id=":C4_11" function="internal">
        <lane id=":C4_11_0" index="0" speed="9.26" length="19.35" shape="401.60,789.60 400.85,794.85 398.60,798.60 394.85,800.85 389.60,801.60"/>
    </edge>
    <edge id=":C4_12" function="internal">
        <lane id=":C4_12_0" index="0" speed="6.51" length="9.03" shape="389.60,795.20 392.05,794.85 393.80,793.80 394.85,792.05 395.20,789.60"/>
    </edge>
    <edge id=":C4_13" function="internal">
        <lane id=":C4_13_0" index="0" speed="13.89" length="20.80" shape="389.60,795.20 410.40,795.20"/>
        <lane id=":C4_13_1" index="1" speed="13.89" length="20.80" shape="389.60,798.40 410.40,798.40"/>
    </edge>
    <edge id=":C4_15" function="internal">
        <lane id=":C4_15_0" index="0" speed="9.26" length="19.35" shape="389.60,798.40 394.85,799.15 398.60,801.40 400.85,805.15 401.60,810.40"/>
    </edge>
    <edge id=":C5_0" function="internal">
        <lane id=":C5_0_0" index="0" speed="3.65" length="4.67" shape="401.60,1100.00 400.80,1101.20 400.00,1101.60 399.20,1101.20 398.40,1100.00"/>
    </edge>
    <edge id=":D0_0" function="internal">
        <lane id=":D0_0_0" index="0" speed="3.65" length="4.67" shape="598.40,-100.00 599.20,-101.20 600.00,-101.60 600.80,-101.20 601.60,-100.00"/>
    </edge>
    <edge id=":D1_0" function="internal">
        <lane id=":D1_0_0" index="0" speed="6.51" length="9.03" shape="595.20,210.40 594.85,207.95 593.80,206.20 592.05,205.15 589.60,204.80"/>
    </edge>
    <edge id=":D1_1" function="internal">
        <lane id=":D1_1_0" index="0" speed="13.89" length="20.80" shape="595.20,210.40 595.20,189.60"/>
        <lane id=":D1_1_1" index="1" speed="13.89" length="20.80" shape="598.40,210.40 598.40,189.60"/>
    </edge>
    <edge id=":D1_3" function="internal">
        <lane id=":D1_3_0" index="0" speed="9.26" length="19.35" shape="598.40,210.40 599.15,205.15 601.40,201.40 605.15,199.15 610.40,198.40"/>
    </edge>
    <edge id=":D1_4" function="internal">
        <lane id=":D1_4_0" index="0" speed="6.51" length="9.03" shape="610.40,204.80 607.95,205.15 606.20,206.20 605.15,207.95 604.80,210.40"/>
    </edge>
    <edge id=":D1_5" function="internal">
        <lane id=":D1_5_0" index="0" speed="13.89" length="20.80" shape="610.40,204.80 589.60,204.80"/>
        <lane id=":D1_5_1" index="1" speed="13.89" length="20.80" shape="610.40,201.60 589.60,201.60"/>
    </edge>
    <edge id=":D1_7" function="internal">
        <lane id=":D1_7_0" index="0" speed="9.26" length="19.35" shape="610.40,201.60 605.15,200.85 601.40,198.60 599.15,194.85 598.40,189.60"/>
    </edge>
    <edge id=":D1_8" function="internal">
        <lane id=":D1_8_0" index="0" speed="6.51" length="9.03" shape="604.80,189.60 605.15,192.05 606.20,193.80 607.95,194.85 610.40,195.20"/>
    </edge>
    <edge id=":D1_9" function="internal">
        <lane id=":D1_9_0" index="0" speed="13.89" length="20.80" shape="604.80,189.60 604.80,210.40"/>
        <lane id=":D1_9_1" index="1" speed="13.89" length="20.80" shape="601.60,189.60 601.60,210.40"/>
    </edge>
    <edge id=":D1_11" function="internal">
        <lane id=":D1_11_0" index="0" speed="9.26" length="19.35" shape="601.60,189.60 600.85,194.85 598.60,198.60 594.85,200.85 589.60,201.60"/>
    </edge>
    <edge id=":D1_12" function="internal">
        <lane id=":D1_12_0" index="0" speed="6.51" length="9.03" shape="589.60,195.20 592.05,194.85 593.80,193.80 594.85,192.05 595.20,189.60"/>
    </edge>
    <edge id=":D1_13" function="internal">
        <lane id=":D1_13_0" index="0" speed="13.89" length="20.80" shape="589.60,195.20 610.40,195.20"/>
        <lane id=":D1_13_1" index="1" speed="13.89" length="20.80" shape="589.60,198.40 610.40,198.40"/>
    </edge>
    <edge id=":D1_15" function="internal">
        <lane id=":D1_15_0" index="0" speed="9.26" length="19.35" shape="589.60,198.40 594.85,199.15 598.60,201.40 600.85,205.15 601.60,210.40"/>
    </edge>
    <edge id=":D2_0" function="internal">
        <lane id=":D2_0_0" index="0" speed="6.51" length="9.03" shape="595.20,410.40 594.85,407.95 593.80,406.20 592.05,405.15 589.60,404.80"/>
    </edge>
    <edge id=":D2_1" function="internal">
        <lane id=":D2_1_0" index="0" speed="13.89" length="20.80" shape="595.20,410.40 595.20,389.60"/>
        <lane id=":D2_1_1" index="1" speed="13.89" length="20.80" shape="598.40,410.40 598.40,389.60"/>
    </edge>
    <edge id=":D2_3" function="internal">
        <lane id=":D2_3_0" index="0" speed="9.26" length="19.35" shape="598.40,410.40 599.15,405.15 601.40,401.40 605.15,399.15 610.40,398.40"/>
    </edge>
    <edge id=":D2_4" function="internal">
        <lane id=":D2_4_0" index="0" speed="6.51" length="9.03" shape="610.40,404.80 607.95,405.15 606.20,406.20 605.15,407.95 604.80,410.40"/>
    </edge>
    <edge id=":D2_5" function="internal">
        <lane id=":D2_5_0" index="0" speed="13.89" length="20.80" shape="610.40,404.80 589.60,404.80"/>
        <lane id=":D2_5_1" index="1" speed="13.89" length="20.80" shape="610.40,401.60 589.60,401.60"/>
    </edge>
    <edge id=":D2_7" function="internal">
        <lane id=":D2_7_0" index="0" speed="9.26" length="19.35" shape="610.40,401.60 605.15,400.85 601.40,398.60 599.15,394.85 598.40,389.60"/>
    </edge>
    <edge id=":D2_8" function="internal">
        <lane id=":D2_8_0" index="0" speed="6.51" length="9.03" shape="604.80,389.60 605.15,392.05 606.20,393.80 607.95,394.85 610.40,395.20"/>
    </edge>
    <edge id=":D2_9" function="internal">
        <lane id=":D2_9_0" index="0" speed="13.89" length="20.80" shape="604.80,389.60 604.80,410.40"/>
        <lane id=":D2_9_1" index="1" speed="13.89" length="20.80" shape="601.60,389.60 601.60,410.40"/>
    </edge>
    <edge id=":D2_11" function="internal">
        <lane id=":D2_11_0" index="0" speed="9.26" length="19.35" shape="601.60,389.60 600.85,394.85 598.60,398.60 594.85,400.85 589.60,401.60"/>
    </edge>
    <edge id=":D2_12" function="internal">
        <lane id=":D2_12_0" index="0" speed="6.51" length="9.03" shape="589.60,395.20 592.05,394.85 593.80,393.80 594.85,392.05 595.20,389.60"/>
    </edge>
    <edge id=":D2_13" function="internal">
        <lane id=":D2_13_0" index="0" speed="13.89" length="20.80" shape="589.60,395.20 610.40,395.20"/>
        <lane id=":D2_13_1" index="1" speed="13.89" length="20.80" shape="589.60,398.40 610.40,398.40"/>
    </edge>
    <edge id=":D2_15" function="internal">
        <lane id=":D2_15_0" index="0" speed="9.26" length="19.35" shape="589.60,398.40 594.85,399.15 598.60,401.40 600.85,405.15 601.60,410.40"/>
    </edge>
    <edge id=":D3_0" function="internal">
        <lane id=":D3_0_0" index="0" speed="6.51" length="9.03" shape="595.20,610.40 594.85,607.95 593.80,606.20 592.05,605.15 589.60,604.80"/>
    </edge>
    <edge id=":D3_1" function="internal">