<?xml version="1.0" encoding="UTF-8"?>

<!-- generated on 2024-01-30 12:55:01 by Eclipse SUMO netedit Version 1.18.0
<configuration xmlns:xsi="http://www.w3.org/2001/XMLSchema-instance" xsi:noNamespaceSchemaLocation="http://sumo.dlr.de/xsd/neteditConfiguration.xsd">

    <input>
        <sumocfg-file value="E:\2023-2024学年\project for new paper\RL_signal_V0.4.5\sumo_files\5_1grid.sumocfg"/>
        <sumo-net-file value="E:\2023-2024学年\project for new paper\RL_signal_V0.4.5\sumo_files\5net.net.xml"/>
    </input>

    <output>
        <output-file value="E:\2023-2024学年\project for new paper\RL_signal_V0.4.5\sumo_files\5net.net.xml"/>
    </output>

    <processing>
        <geometry.min-radius.fix.railways value="false"/>
        <geometry.max-grade.fix value="false"/>
        <offset.disable-normalization value="true"/>
        <lefthand value="0"/>
    </processing>

    <junctions>
        <no-turnarounds value="true"/>
        <junctions.corner-detail value="5"/>
        <junctions.limit-turn-speed value="5.50"/>
        <rectangular-lane-cut value="0"/>
    </junctions>

    <pedestrian>
        <walkingareas value="0"/>
    </pedestrian>

</configuration>
-->

<net version="1.16" junctionCornerDetail="5" limitTurnSpeed="5.50" xmlns:xsi="http://www.w3.org/2001/XMLSchema-instance" xsi:noNamespaceSchemaLocation="http://sumo.dlr.de/xsd/net_file.xsd">

    <location netOffset="0.00,0.00" convBoundary="-100.00,-500.00,1700.00,1300.00" origBoundary="0.00,0.00,1200.00,1200.00" projParameter="!"/>

    <edge id=":A1_0" function="internal">
        <lane id=":A1_0_0" index="0" speed="3.65" length="4.67" shape="-100.00,-198.40 -101.20,-199.20 -101.60,-200.00 -101.20,-200.80 -100.00,-201.60"/>
    </edge>
    <edge id=":A2_0" function="internal">
        <lane id=":A2_0_0" index="0" speed="3.65" length="4.67" shape="-100.00,101.60 -101.20,100.80 -101.60,100.00 -101.20,99.20 -100.00,98.40"/>
    </edge>
    <edge id=":A3_0" function="internal">
        <lane id=":A3_0_0" index="0" speed="3.65" length="4.67" shape="-100.00,401.60 -101.20,400.80 -101.60,400.00 -101.20,399.20 -100.00,398.40"/>
    </edge>
    <edge id=":A4_0" function="internal">
        <lane id=":A4_0_0" index="0" speed="3.65" length="4.67" shape="-100.00,701.60 -101.20,700.80 -101.60,700.00 -101.20,699.20 -100.00,698.40"/>
    </edge>
    <edge id=":A5_0" function="internal">
        <lane id=":A5_0_0" index="0" speed="3.65" length="4.67" shape="-100.00,1001.60 -101.20,1000.80 -101.60,1000.00 -101.20,999.20 -100.00,998.40"/>
    </edge>
    <edge id=":B0_0" function="internal">
        <lane id=":B0_0_0" index="0" speed="3.65" length="4.67" shape="198.40,-500.00 199.20,-501.20 200.00,-501.60 200.80,-501.20 201.60,-500.00"/>
    </edge>
    <edge id=":B1_0" function="internal">
        <lane id=":B1_0_0" index="0" speed="6.51" length="9.03" shape="198.40,-192.80 198.05,-195.25 197.00,-197.00 195.25,-198.05 192.80,-198.40"/>
    </edge>
    <edge id=":B1_1" function="internal">
        <lane id=":B1_1_0" index="0" speed="13.89" length="14.40" shape="198.40,-192.80 198.40,-207.20"/>
    </edge>
    <edge id=":B1_2" function="internal">
        <lane id=":B1_2_0" index="0" speed="8.00" length="4.07" shape="198.40,-192.80 198.95,-196.65 199.04,-196.80"/>
    </edge>
    <edge id=":B1_12" function="internal">
        <lane id=":B1_12_0" index="0" speed="8.00" length="10.13" shape="199.04,-196.80 200.60,-199.40 203.35,-201.05 207.20,-201.60"/>
    </edge>
    <edge id=":B1_3" function="internal">
        <lane id=":B1_3_0" index="0" speed="6.51" length="9.03" shape="207.20,-198.40 204.75,-198.05 203.00,-197.00 201.95,-195.25 201.60,-192.80"/>
    </edge>
    <edge id=":B1_4" function="internal">
        <lane id=":B1_4_0" index="0" speed="13.89" length="14.40" shape="207.20,-198.40 192.80,-198.40"/>
    </edge>
    <edge id=":B1_5" function="internal">
        <lane id=":B1_5_0" index="0" speed="8.00" length="4.07" shape="207.20,-198.40 203.35,-198.95 203.20,-199.04"/>
    </edge>
    <edge id=":B1_13" function="internal">
        <lane id=":B1_13_0" index="0" speed="8.00" length="10.13" shape="203.20,-199.04 200.60,-200.60 198.95,-203.35 198.40,-207.20"/>
    </edge>
    <edge id=":B1_6" function="internal">
        <lane id=":B1_6_0" index="0" speed="6.51" length="9.03" shape="201.60,-207.20 201.95,-204.75 203.00,-203.00 204.75,-201.95 207.20,-201.60"/>
    </edge>
    <edge id=":B1_7" function="internal">
        <lane id=":B1_7_0" index="0" speed="13.89" length="14.40" shape="201.60,-207.20 201.60,-192.80"/>
    </edge>
    <edge id=":B1_8" function="internal">
        <lane id=":B1_8_0" index="0" speed="8.00" length="4.07" shape="201.60,-207.20 201.05,-203.35 200.96,-203.20"/>
    </edge>
    <edge id=":B1_14" function="internal">
        <lane id=":B1_14_0" index="0" speed="8.00" length="10.13" shape="200.96,-203.20 199.40,-200.60 196.65,-198.95 192.80,-198.40"/>
    </edge>
    <edge id=":B1_9" function="internal">
        <lane id=":B1_9_0" index="0" speed="6.51" length="9.03" shape="192.80,-201.60 195.25,-201.95 197.00,-203.00 198.05,-204.75 198.40,-207.20"/>
    </edge>
    <edge id=":B1_10" function="internal">
        <lane id=":B1_10_0" index="0" speed="13.89" length="14.40" shape="192.80,-201.60 207.20,-201.60"/>
    </edge>
    <edge id=":B1_11" function="internal">
        <lane id=":B1_11_0" index="0" speed="8.00" length="4.07" shape="192.80,-201.60 196.65,-201.05 196.80,-200.96"/>
    </edge>
    <edge id=":B1_15" function="internal">
        <lane id=":B1_15_0" index="0" speed="8.00" length="10.13" shape="196.80,-200.96 199.40,-199.40 201.05,-196.65 201.60,-192.80"/>
    </edge>
    <edge id=":B2_0" function="internal">
        <lane id=":B2_0_0" index="0" speed="6.51" length="9.03" shape="198.40,107.20 198.05,104.75 197.00,103.00 195.25,101.95 192.80,101.60"/>
    </edge>
    <edge id=":B2_1" function="internal">
        <lane id=":B2_1_0" index="0" speed="13.89" length="14.40" shape="198.40,107.20 198.40,92.80"/>
    </edge>
    <edge id=":B2_2" function="internal">
        <lane id=":B2_2_0" index="0" speed="8.00" length="4.07" shape="198.40,107.20 198.95,103.35 199.04,103.20"/>
    </edge>
    <edge id=":B2_12" function="internal">
        <lane id=":B2_12_0" index="0" speed="8.00" length="10.13" shape="199.04,103.20 200.60,100.60 203.35,98.95 207.20,98.40"/>
    </edge>
    <edge id=":B2_3" function="internal">
        <lane id=":B2_3_0" index="0" speed="6.51" length="9.03" shape="207.20,101.60 204.75,101.95 203.00,103.00 201.95,104.75 201.60,107.20"/>
    </edge>
    <edge id=":B2_4" function="internal">
        <lane id=":B2_4_0" index="0" speed="13.89" length="14.40" shape="207.20,101.60 192.80,101.60"/>
    </edge>
    <edge id=":B2_5" function="internal">
        <lane id=":B2_5_0" index="0" speed="8.00" length="4.07" shape="207.20,101.60 203.35,101.05 203.20,100.96"/>
    </edge>
    <edge id=":B2_13" function="internal">
        <lane id=":B2_13_0" index="0" speed="8.00" length="10.13" shape="203.20,100.96 200.60,99.40 198.95,96.65 198.40,92.80"/>
    </edge>
    <edge id=":B2_6" function="internal">
        <lane id=":B2_6_0" index="0" speed="6.51" length="9.03" shape="201.60,92.80 201.95,95.25 203.00,97.00 204.75,98.05 207.20,98.40"/>
    </edge>
    <edge id=":B2_7" function="internal">
        <lane id=":B2_7_0" index="0" speed="13.89" length="14.40" shape="201.60,92.80 201.60,107.20"/>
    </edge>
    <edge id=":B2_8" function="internal">
        <lane id=":B2_8_0" index="0" speed="8.00" length="4.07" shape="201.60,92.80 201.05,96.65 200.96,96.80"/>
    </edge>
    <edge id=":B2_14" function="internal">
        <lane id=":B2_14_0" index="0" speed="8.00" length="10.13" shape="200.96,96.80 199.40,99.40 196.65,101.05 192.80,101.60"/>
    </edge>
    <edge id=":B2_9" function="internal">
        <lane id=":B2_9_0" index="0" speed="6.51" length="9.03" shape="192.80,98.40 195.25,98.05 197.00,97.00 198.05,95.25 198.40,92.80"/>
    </edge>
    <edge id=":B2_10" function="internal">
        <lane id=":B2_10_0" index="0" speed="13.89" length="14.40" shape="192.80,98.40 207.20,98.40"/>
    </edge>
    <edge id=":B2_11" function="internal">
        <lane id=":B2_11_0" index="0" speed="8.00" length="4.07" shape="192.80,98.40 196.65,98.95 196.80,99.04"/>
    </edge>
    <edge id=":B2_15" function="internal">
        <lane id=":B2_15_0" index="0" speed="8.00" length="10.13" shape="196.80,99.04 199.40,100.60 201.05,103.35 201.60,107.20"/>
    </edge>
    <edge id=":B3_0" function="internal">
        <lane id=":B3_0_0" index="0" speed="6.51" length="9.03" shape="198.40,407.20 198.05,404.75 197.00,403.00 195.25,401.95 192.80,401.60"/>
    </edge>
    <edge id=":B3_1" function="internal">
        <lane id=":B3_1_0" index="0" speed="13.89" length="14.40" shape="198.40,407.20 198.40,392.80"/>
    </edge>
    <edge id=":B3_2" function="internal">
        <lane id=":B3_2_0" index="0" speed="8.00" length="4.07" shape="198.40,407.20 198.95,403.35 199.04,403.20"/>
    </edge>
    <edge id=":B3_12" function="internal">
        <lane id=":B3_12_0" index="0" speed="8.00" length="10.13" shape="199.04,403.20 200.60,400.60 203.35,398.95 207.20,398.40"/>
    </edge>
    <edge id=":B3_3" function="internal">
        <lane id=":B3_3_0" index="0" speed="6.51" length="9.03" shape="207.20,401.60 204.75,401.95 203.00,403.00 201.95,404.75 201.60,407.20"/>
    </edge>
    <edge id=":B3_4" function="internal">
        <lane id=":B3_4_0" index="0" speed="13.89" length="14.40" shape="207.20,401.60 192.80,401.60"/>
    </edge>
    <edge id=":B3_5" function="internal">
        <lane id=":B3_5_0" index="0" speed="8.00" length="4.07" shape="207.20,401.60 203.35,401.05 203.20,400.96"/>
    </edge>
    <edge id=":B3_13" function="internal">
        <lane id=":B3_13_0" index="0" speed="8.00" length="10.13" shape="203.20,400.96 200.60,399.40 198.95,396.65 198.40,392.80"/>
    </edge>
    <edge id=":B3_6" function="internal">
        <lane id=":B3_6_0" index="0" speed="6.51" length="9.03" shape="201.60,392.80 201.95,395.25 203.00,397.00 204.75,398.05 207.20,398.40"/>
    </edge>
    <edge id=":B3_7" function="internal">
        <lane id=":B3_7_0" index="0" speed="13.89" length="14.40" shape="201.60,392.80 201.60,407.20"/>
    </edge>
    <edge id=":B3_8" function="internal">
        <lane id=":B3_8_0" index="0" speed="8.00" length="4.07" shape="201.60,392.80 201.05,396.65 200.96,396.80"/>
    </edge>
    <edge id=":B3_14" function="internal">
        <lane id=":B3_14_0" index="0" speed="8.00" length="10.13" shape="200.96,396.80 199.40,399.40 196.65,401.05 192.80,401.60"/>
    </edge>
    <edge id=":B3_9" function="internal">
        <lane id=":B3_9_0" index="0" speed="6.51" length="9.03" shape="192.80,398.40 195.25,398.05 197.00,397.00 198.05,395.25 198.40,392.80"/>
    </edge>
    <edge id=":B3_10" function="internal">
        <lane id=":B3_10_0" index="0" speed="13.89" length="14.40" shape="192.80,398.40 207.20,398.40"/>
    </edge>
    <edge id=":B3_11" function="internal">
        <lane id=":B3_11_0" index="0" speed="8.00" length="4.07" shape="192.80,398.40 196.65,398.95 196.80,399.04"/>
    </edge>
    <edge id=":B3_15" function="internal">
        <lane id=":B3_15_0" index="0" speed="8.00" length="10.13" shape="196.80,399.04 199.40,400.60 201.05,403.35 201.60,407.20"/>
    </edge>
    <edge id=":B4_0" function="internal">
        <lane id=":B4_0_0" index="0" speed="6.51" length="9.03" shape="198.40,707.20 198.05,704.75 197.00,703.00 195.25,701.95 192.80,701.60"/>
    </edge>
    <edge id=":B4_1" function="internal">
        <lane id=":B4_1_0" index="0" speed="13.89" length="14.40" shape="198.40,707.20 198.40,692.80"/>
    </edge>
    <edge id=":B4_2" function="internal">
        <lane id=":B4_2_0" index="0" speed="8.00" length="4.07" shape="198.40,707.20 198.95,703.35 199.04,703.20"/>
    </edge>
    <edge id=":B4_12" function="internal">
        <lane id=":B4_12_0" index="0" speed="8.00" length="10.13" shape="199.04,703.20 200.60,700.60 203.35,698.95 207.20,698.40"/>
    </edge>
    <edge id=":B4_3" function="internal">
        <lane id=":B4_3_0" index="0" speed="6.51" length="9.03" shape="207.20,701.60 204.75,701.95 203.00,703.00 201.95,704.75 201.60,707.20"/>
    </edge>
    <edge id=":B4_4" function="internal">
        <lane id=":B4_4_0" index="0" speed="13.89" length="14.40" shape="207.20,701.60 192.80,701.60"/>
    </edge>
    <edge id=":B4_5" function="internal">
        <lane id=":B4_5_0" index="0" speed="8.00" length="4.07" shape="207.20,701.60 203.35,701.05 203.20,700.96"/>
    </edge>
    <edge id=":B4_13" function="internal">
        <lane id=":B4_13_0" index="0" speed="8.00" length="10.13" shape="203.20,700.96 200.60,699.40 198.95,696.65 198.40,692.80"/>
    </edge>
    <edge id=":B4_6" function="internal">
        <lane id=":B4_6_0" index="0" speed="6.51" length="9.03" shape="201.60,692.80 201.95,695.25 203.00,697.00 204.75,698.05 207.20,698.40"/>
    </edge>
    <edge id=":B4_7" function="internal">
        <lane id=":B4_7_0" index="0" speed="13.89" length="14.40" shape="201.60,692.80 201.60,707.20"/>
    </edge>
    <edge id=":B4_8" function="internal">
        <lane id=":B4_8_0" index="0" speed="8.00" length="4.07" shape="201.60,692.80 201.05,696.65 200.96,696.80"/>
    </edge>
    <edge id=":B4_14" function="internal">
        <lane id=":B4_14_0" index="0" speed="8.00" length="10.13" shape="200.96,696.80 199.40,699.40 196.65,701.05 192.80,701.60"/>
    </edge>
    <edge id=":B4_9" function="internal">
        <lane id=":B4_9_0" index="0" speed="6.51" length="9.03" shape="192.80,698.40 195.25,698.05 197.00,697.00 198.05,695.25 198.40,692.80"/>
    </edge>
    <edge id=":B4_10" function="internal">
        <lane id=":B4_10_0" index="0" speed="13.89" length="14.40" shape="192.80,698.40 207.20,698.40"/>
    </edge>
    <edge id=":B4_11" function="internal">
        <lane id=":B4_11_0" index="0" speed="8.00" length="4.07" shape="192.80,698.40 196.65,698.95 196.80,699.04"/>
    </edge>
    <edge id=":B4_15" function="internal">
        <lane id=":B4_15_0" index="0" speed="8.00" length="10.13" shape="196.80,699.04 199.40,700.60 201.05,703.35 201.60,707.20"/>
    </edge>
    <edge id=":B5_0" function="internal">
        <lane id=":B5_0_0" index="0" speed="6.51" length="9.03" shape="198.40,1007.20 198.05,1004.75 197.00,1003.00 195.25,1001.95 192.80,1001.60"/>
    </edge>
    <edge id=":B5_1" function="internal">
        <lane id=":B5_1_0" index="0" speed="13.89" length="14.40" shape="198.40,1007.20 198.40,992.80"/>
    </edge>
    <edge id=":B5_2" function="internal">
        <lane id=":B5_2_0" index="0" speed="8.00" length="4.07" shape="198.40,1007.20 198.95,1003.35 199.04,1003.20"/>
    </edge>
    <edge id=":B5_12" function="internal">
        <lane id=":B5_12_0" index="0" speed="8.00" length="10.13" shape="199.04,1003.20 200.60,1000.60 203.35,998.95 207.20,998.40"/>
    </edge>
    <edge id=":B5_3" function="internal">
        <lane id=":B5_3_0" index="0" speed="6.51" length="9.03" shape="207.20,1001.60 204.75,1001.95 203.00,1003.00 201.95,1004.75 201.60,1007.20"/>
    </edge>
    <edge id=":B5_4" function="internal">
        <lane id=":B5_4_0" index="0" speed="13.89" length="14.40" shape="207.20,1001.60 192.80,1001.60"/>
    </edge>
    <edge id=":B5_5" function="internal">
        <lane id=":B5_5_0" index="0" speed="8.00" length="14.19" shape="207.20,1001.60 203.35,1001.05 200.60,999.40 198.95,996.65 198.40,992.80"/>
    </edge>
    <edge id=":B5_6" function="internal">
        <lane id=":B5_6_0" index="0" speed="6.51" length="9.03" shape="201.60,992.80 201.95,995.25 203.00,997.00 204.75,998.05 207.20,998.40"/>
    </edge>
    <edge id=":B5_7" function="internal">
        <lane id=":B5_7_0" index="0" speed="13.89" length="14.40" shape="201.60,992.80 201.60,1007.20"/>
    </edge>
    <edge id=":B5_8" function="internal">
        <lane id=":B5_8_0" index="0" speed="8.00" length="4.07" shape="201.60,992.80 201.05,996.65 200.96,996.80"/>
    </edge>
    <edge id=":B5_13" function="internal">
        <lane id=":B5_13_0" index="0" speed="8.00" length="10.13" shape="200.96,996.80 199.40,999.40 196.65,1001.05 192.80,1001.60"/>
    </edge>
    <edge id=":B5_9" function="internal">
        <lane id=":B5_9_0" index="0" speed="6.51" length="9.03" shape="192.80,998.40 195.25,998.05 197.00,997.00 198.05,995.25 198.40,992.80"/>
    </edge>
    <edge id=":B5_10" function="internal">
        <lane id=":B5_10_0" index="0" speed="13.89" length="14.40" shape="192.80,998.40 207.20,998.40"/>
    </edge>
    <edge id=":B5_11" function="internal">
        <lane id=":B5_11_0" index="0" speed="8.00" length="14.19" shape="192.80,998.40 196.65,998.95 199.40,1000.60 201.05,1003.35 201.60,1007.20"/>
    </edge>
    <edge id=":B6_0" function="internal">
        <lane id=":B6_0_0" index="0" speed="3.65" length="4.67" shape="201.60,1300.00 200.80,1301.20 200.00,1301.60 199.20,1301.20 198.40,1300.00"/>
    </edge>
    <edge id=":C0_0" function="internal">
        <lane id=":C0_0_0" index="0" speed="3.65" length="4.67" shape="498.40,-500.00 499.20,-501.20 500.00,-501.60 500.80,-501.20 501.60,-500.00"/>
    </edge>
    <edge id=":C1_0" function="internal">
        <lane id=":C1_0_0" index="0" speed="6.51" length="9.03" shape="498.40,-192.80 498.05,-195.25 497.00,-197.00 495.25,-198.05 492.80,-198.40"/>
    </edge>
    <edge id=":C1_1" function="internal">
        <lane id=":C1_1_0" index="0" speed="13.89" length="14.40" shape="498.40,-192.80 498.40,-207.20"/>
    </edge>
    <edge id=":C1_2" function="internal">
        <lane id=":C1_2_0" index="0" speed="8.00" length="4.07" shape="498.40,-192.80 498.95,-196.65 499.04,-196.80"/>
    </edge>
    <edge id=":C1_12" function="internal">
        <lane id=":C1_12_0" index="0" speed="8.00" length="10.13" shape="499.04,-196.80 500.60,-199.40 503.35,-201.05 507.20,-201.60"/>
    </edge>
    <edge id=":C1_3" function="internal">
        <lane id=":C1_3_0" index="0" speed="6.51" length="9.03" shape="507.20,-198.40 504.75,-198.05 503.00,-197.00 501.95,-195.25 501.60,-192.80"/>
    </edge>
    <edge id=":C1_4" function="internal">
        <lane id=":C1_4_0" index="0" speed="13.89" length="14.40" shape="507.20,-198.40 492.80,-198.40"/>
    </edge>
    <edge id=":C1_5" function="internal">
        <lane id=":C1_5_0" index="0" speed="8.00" length="4.07" shape="507.20,-198.40 503.35,-198.95 503.20,-199.04"/>
    </edge>
    <edge id=":C1_13" function="internal">
        <lane id=":C1_13_0" index="0" speed="8.00" length="10.13" shape="503.20,-199.04 500.60,-200.60 498.95,-203.35 498.40,-207.20"/>
    </edge>
    <edge id=":C1_6" function="internal">
        <lane id=":C1_6_0" index="0" speed="6.51" length="9.03" shape="501.60,-207.20 501.95,-204.75 503.00,-203.00 504.75,-201.95 507.20,-201.60"/>
    </edge>
    <edge id=":C1_7" function="internal">
        <lane id=":C1_7_0" index="0" speed="13.89" length="14.40" shape="501.60,-207.20 501.60,-192.80"/>
    </edge>
    <edge id=":C1_8" function="internal">
        <lane id=":C1_8_0" index="0" speed="8.00" length="4.07" shape="501.60,-207.20 501.05,-203.35 500.96,-203.20"/>
    </edge>
    <edge id=":C1_14" function="internal">
        <lane id=":C1_14_0" index="0" speed="8.00" length="10.13" shape="500.96,-203.20 499.40,-200.60 496.65,-198.95 492.80,-198.40"/>
    </edge>
    <edge id=":C1_9" function="internal">
        <lane id=":C1_9_0" index="0" speed="6.51" length="9.03" shape="492.80,-201.60 495.25,-201.95 497.00,-203.00 498.05,-204.75 498.40,-207.20"/>
    </edge>
    <edge id=":C1_10" function="internal">
        <lane id=":C1_10_0" index="0" speed="13.89" length="14.40" shape="492.80,-201.60 507.20,-201.60"/>
    </edge>
    <edge id=":C1_11" function="internal">
        <lane id=":C1_11_0" index="0" speed="8.00" length="4.07" shape="492.80,-201.60 496.65,-201.05 496.80,-200.96"/>
    </edge>
    <edge id=":C1_15" function="internal">
        <lane id=":C1_15_0" index="0" speed="8.00" length="10.13" shape="496.80,-200.96 499.40,-199.40 501.05,-196.65 501.60,-192.80"/>
    </edge>
    <edge id=":C2_0" function="internal">
        <lane id=":C2_0_0" index="0" speed="6.51" length="9.03" shape="498.40,107.20 498.05,104.75 497.00,103.00 495.25,101.95 492.80,101.60"/>
    </edge>
    <edge id=":C2_1" function="internal">
        <lane id=":C2_1_0" index="0" speed="13.89" length="14.40" shape="498.40,107.20 498.40,92.80"/>
    </edge>
    <edge id=":C2_2" function="internal">
        <lane id=":C2_2_0" index="0" speed="8.00" length="4.07" shape="498.40,107.20 498.95,103.35 499.04,103.20"/>
    </edge>
    <edge id=":C2_12" function="internal">
        <lane id=":C2_12_0" index="0" speed="8.00" length="10.13" shape="499.04,103.20 500.60,100.60 503.35,98.95 507.20,98.40"/>
    </edge>
    <edge id=":C2_3" function="internal">
        <lane id=":C2_3_0" index="0" speed="6.51" length="9.03" shape="507.20,101.60 504.75,101.95 503.00,103.00 501.95,104.75 501.60,107.20"/>
    </edge>
    <edge id=":C2_4" function="internal">
        <lane id=":C2_4_0" index="0" speed="13.89" length="14.40" shape="507.20,101.60 492.80,101.60"/>
    </edge>
    <edge id=":C2_5" function="internal">
        <lane id=":C2_5_0" index="0" speed="8.00" length="4.07" shape="507.20,101.60 503.35,101.05 503.20,100.96"/>
    </edge>
    <edge id=":C2_13" function="internal">
        <lane id=":C2_13_0" index="0" speed="8.00" length="10.13" shape="503.20,100.96 500.60,99.40 498.95,96.65 498.40,92.80"/>
    </edge>
    <edge id=":C2_6" function="internal">
        <lane id=":C2_6_0" index="0" speed="6.51" length="9.03" shape="501.60,92.80 501.95,95.25 503.00,97.00 504.75,98.05 507.20,98.40"/>
    </edge>
    <edge id=":C2_7" function="internal">
        <lane id=":C2_7_0" index="0" speed="13.89" length="14.40" shape="501.60,92.80 501.60,107.20"/>
    </edge>
    <edge id=":C2_8" function="internal">
        <lane id=":C2_8_0" index="0" speed="8.00" length="4.07" shape="501.60,92.80 501.05,96.65 500.96,96.80"/>
    </edge>
    <edge id=":C2_14" function="internal">
        <lane id=":C2_14_0" index="0" speed="8.00" length="10.13" shape="500.96,96.80 499.40,99.40 496.65,101.05 492.80,101.60"/>
    </edge>
    <edge id=":C2_9" function="internal">
        <lane id=":C2_9_0" index="0" speed="6.51" length="9.03" shape="492.80,98.40 495.25,98.05 497.00,97.00 498.05,95.25 498.40,92.80"/>
    </edge>
    <edge id=":C2_10" function="internal">
        <lane id=":C2_10_0" index="0" speed="13.89" length="14.40" shape="492.80,98.40 507.20,98.40"/>
    </edge>
    <edge id=":C2_11" function="internal">
        <lane id=":C2_11_0" index="0" speed="8.00" length="4.07" shape="492.80,98.40 496.65,98.95 496.80,99.04"/>
    </edge>
    <edge id=":C2_15" function="internal">
        <lane id=":C2_15_0" index="0" speed="8.00" length="10.13" shape="496.80,99.04 499.40,100.60 501.05,103.35 501.60,107.20"/>
    </edge>
    <edge id=":C3_0" function="internal">
        <lane id=":C3_0_0" index="0" speed="6.51" length="9.03" shape="498.40,407.20 498.05,404.75 497.00,403.00 495.25,401.95 492.80,401.60"/>
    </edge>
    <edge id=":C3_1" function="internal">
        <lane id=":C3_1_0" index="0" speed="13.89" length="14.40" shape="498.40,407.20 498.40,392.80"/>
    </edge>
    <edge id=":C3_2" function="internal">
        <lane id=":C3_2_0" index="0" speed="8.00" length="4.07" shape="498.40,407.20 498.95,403.35 499.04,403.20"/>
    </edge>
    <edge id=":C3_12" function="internal">
        <lane id=":C3_12_0" index="0" speed="8.00" length="10.13" shape="499.04,403.20 500.60,400.60 503.35,398.95 507.20,398.40"/>
    </edge>
    <edge id=":C3_3" function="internal">
        <lane id=":C3_3_0" index="0" speed="6.51" length="9.03" shape="507.20,401.60 504.75,401.95 503.00,403.00 501.95,404.75 501.60,407.20"/>
    </edge>
    <edge id=":C3_4" function="internal">
        <lane id=":C3_4_0" index="0" speed="13.89" length="14.40" shape="507.20,401.60 492.80,401.60"/>
    </edge>
    <edge id=":C3_5" function="internal">
        <lane id=":C3_5_0" index="0" speed="8.00" length="4.07" shape="507.20,401.60 503.35,401.05 503.20,400.96"/>
    </edge>
    <edge id=":C3_13" function="internal">
        <lane id=":C3_13_0" index="0" speed="8.00" length="10.13" shape="503.20,400.96 500.60,399.40 498.95,396.65 498.40,392.80"/>
    </edge>
    <edge id=":C3_6" function="internal">
        <lane id=":C3_6_0" index="0" speed="6.51" length="9.03" shape="501.60,392.80 501.95,395.25 503.00,397.00 504.75,398.05 507.20,398.40"/>
    </edge>
    <edge id=":C3_7" function="internal">
        <lane id=":C3_7_0" index="0" speed="13.89" length="14.40" shape="501.60,392.80 501.60,407.20"/>
    </edge>
    <edge id=":C3_8" function="internal">
        <lane id=":C3_8_0" index="0" speed="8.00" length="4.07" shape="501.60,392.80 501.05,396.65 500.96,396.80"/>
    </edge>
    <edge id=":C3_14" function="internal">
        <lane id=":C3_14_0" index="0" speed="8.00" length="10.13" shape="500.96,396.80 499.40,399.40 496.65,401.05 492.80,401.60"/>
    </edge>
    <edge id=":C3_9" function="internal">
        <lane id=":C3_9_0" index="0" speed="6.51" length="9.03" shape="492.80,398.40 495.25,398.05 497.00,397.00 498.05,395.25 498.40,392.80"/>
    </edge>
    <edge id=":C3_10" function="internal">
        <lane id=":C3_10_0" index="0" speed="13.89" length="14.40" shape="492.80,398.40 507.20,398.40"/>
    </edge>
    <edge id=":C3_11" function="internal">
        <lane id=":C3_11_0" index="0" speed="8.00" length="4.07" shape="492.80,398.40 496.65,398.95 496.80,399.04"/>
    </edge>
    <edge id=":C3_15" function="internal">
        <lane id=":C3_15_0" index="0" speed="8.00" length="10.13" shape="496.80,399.04 499.40,400.60 501.05,403.35 501.60,407.20"/>
    </edge>
    <edge id=":C4_0" function="internal">
        <lane id=":C4_0_0" index="0" speed="6.51" length="9.03" shape="498.40,707.20 498.05,704.75 497.00,703.00 495.25,701.95 492.80,701.60"/>
    </edge>
    <edge id=":C4_1" function="internal">
        <lane id=":C4_1_0" index="0" speed="13.89" length="14.40" shape="498.40,707.20 498.40,692.80"/>
    </edge>
    <edge id=":C4_2" function="internal">
        <lane id=":C4_2_0" index="0" speed="8.00" length="4.07" shape="498.40,707.20 498.95,703.35 499.04,703.20"/>
    </edge>
    <edge id=":C4_12" function="internal">
        <lane id=":C4_12_0" index="0" speed="8.00" length="10.13" shape="499.04,703.20 500.60,700.60 503.35,698.95 507.20,698.40"/>
    </edge>
    <edge id=":C4_3" function="internal">
        <lane id=":C4_3_0" index="0" speed="6.51" length="9.03" shape="507.20,701.60 504.75,701.95 503.00,703.00 501.95,704.75 501.60,707.20"/>
    </edge>
    <edge id=":C4_4" function="internal">
        <lane id=":C4_4_0" index="0" speed="13.89" length="14.40" shape="507.20,701.60 492.80,701.60"/>
    </edge>
    <edge id=":C4_5" function="internal">
        <lane id=":C4_5_0" index="0" speed="8.00" length="4.07" shape="507.20,701.60 503.35,701.05 503.20,700.96"/>
    </edge>
    <edge id=":C4_13" function="internal">
        <lane id=":C4_13_0" index="0" speed="8.00" length="10.13" shape="503.20,700.96 500.60,699.40 498.95,696.65 498.40,692.80"/>
    </edge>
    <edge id=":C4_6" function="internal">
        <lane id=":C4_6_0" index="0" speed="6.51" length="9.03" shape="501.60,692.80 501.95,695.25 503.00,697.00 504.75,698.05 507.20,698.40"/>
    </edge>
    <edge id=":C4_7" function="internal">
        <lane id=":C4_7_0" index="0" speed="13.89" length="14.40" shape="501.60,692.80 501.60,707.20"/>
    </edge>
    <edge id=":C4_8" function="internal">
        <lane id=":C4_8_0" index="0" speed="8.00" length="4.07" shape="501.60,692.80 501.05,696.65 500.96,696.80"/>
    </edge>
    <edge id=":C4_14" function="internal">
        <lane id=":C4_14_0" index="0" speed="8.00" length="10.13" shape="500.96,696.80 499.40,699.40 496.65,701.05 492.80,701.60"/>
    </edge>
    <edge id=":C4_9" function="internal">
        <lane id=":C4_9_0" index="0" speed="6.51" length="9.03" shape="492.80,698.40 495.25,698.05 497.00,697.00 498.05,695.25 498.40,692.80"/>
    </edge>
    <edge id=":C4_10" function="internal">
        <lane id=":C4_10_0" index="0" speed="13.89" length="14.40" shape="492.80,698.40 507.20,698.40"/>
    </edge>
    <edge id=":C4_11" function="internal">
        <lane id=":C4_11_0" index="0" speed="8.00" length="4.07" shape="492.80,698.40 496.65,698.95 496.80,699.04"/>
    </edge>
    <edge id=":C4_15" function="internal">
        <lane id=":C4_15_0" index="0" speed="8.00" length="10.13" shape="496.80,699.04 499.40,700.60 501.05,703.35 501.60,707.20"/>
    </edge>
    <edge id=":C5_0" function="internal">
        <lane id=":C5_0_0" index="0" speed="6.51" length="9.03" shape="498.40,1007.20 498.05,1004.75 497.00,1003.00 495.25,1001.95 492.80,1001.60"/>
    </edge>
    <edge id=":C5_1" function="internal">
        <lane id=":C5_1_0" index="0" speed="13.89" length="14.40" shape="498.40,1007.20 498.40,992.80"/>
    </edge>
    <edge id=":C5_2" function="internal">
        <lane id=":C5_2_0" index="0" speed="8.00" length="4.07" shape="498.40,1007.20 498.95,1003.35 499.04,1003.20"/>
    </edge>
    <edge id=":C5_12" function="internal">
        <lane id=":C5_12_0" index="0" speed="8.00" length="10.13" shape="499.04,1003.20 500.60,1000.60 503.35,998.95 507.20,998.40"/>
    </edge>
    <edge id=":C5_3" function="internal">
        <lane id=":C5_3_0" index="0" speed="6.51" length="9.03" shape="507.20,1001.60 504.75,1001.95 503.00,1003.00 501.95,1004.75 501.60,1007.20"/>
    </edge>
    <edge id=":C5_4" function="internal">
        <lane id=":C5_4_0" index="0" speed="13.89" length="14.40" shape="507.20,1001.60 492.80,1001.60"/>
    </edge>
    <edge id=":C5_5" function="internal">
        <lane id=":C5_5_0" index="0" speed="8.00" length="4.07" shape="507.20,1001.60 503.35,1001.05 503.20,1000.96"/>
    </edge>
    <edge id=":C5_13" function="internal">