<?xml version="1.0" encoding="UTF-8"?>

<!-- generated on 2024-01-20 12:28:03 by Eclipse SUMO netedit Version 1.19.0
<configuration xmlns:xsi="http://www.w3.org/2001/XMLSchema-instance" xsi:noNamespaceSchemaLocation="http://sumo.dlr.de/xsd/neteditConfiguration.xsd">

    <input>
        <sumocfg-file value="C:\Users\23518\Desktop\ai\sumolights-master\networks\5grid.sumocfg"/>
        <additional-files value=""/>
        <route-files value="C:\Users\23518\Desktop\ai\sumolights-master\networks\5groutes.xml"/>
        <sumo-net-file value="C:\Users\23518\Desktop\ai\sumolights-master\networks\5net.net.xml"/>
    </input>

    <output>
        <output-file value="C:\Users\23518\Desktop\ai\sumolights-master\networks\5net.net.xml"/>
    </output>

    <processing>
        <geometry.min-radius.fix.railways value="false"/>
        <geometry.max-grade.fix value="false"/>
        <offset.disable-normalization value="true"/>
        <lefthand value="0"/>
    </processing>

    <junctions>
        <no-turnarounds value="true"/>
        <junctions.corner-detail value="5"/>
        <junctions.limit-turn-speed value="5.50"/>
        <rectangular-lane-cut value="0"/>
    </junctions>

    <pedestrian>
        <walkingareas value="0"/>
    </pedestrian>

</configuration>
-->

<net version="1.16" junctionCornerDetail="5" limitTurnSpeed="5.50" xmlns:xsi="http://www.w3.org/2001/XMLSchema-instance" xsi:noNamespaceSchemaLocation="http://sumo.dlr.de/xsd/net_file.xsd">

    <location netOffset="0.00,0.00" convBoundary="-100.00,-500.00,1700.00,1300.00" origBoundary="0.00,0.00,1200.00,1200.00" projParameter="!"/>

    <edge id=":A1_0" function="internal">
        <lane id=":A1_0_0" index="0" speed="3.65" length="4.67" shape="-100.00,-198.40 -101.20,-199.20 -101.60,-200.00 -101.20,-200.80 -100.00,-201.60"/>
    </edge>
    <edge id=":A2_0" function="internal">
        <lane id=":A2_0_0" index="0" speed="3.65" length="4.67" shape="-100.00,101.60 -101.20,100.80 -101.60,100.00 -101.20,99.20 -100.00,98.40"/>
    </edge>
    <edge id=":A3_0" function="internal">
        <lane id=":A3_0_0" index="0" speed="3.65" length="4.67" shape="-100.00,401.60 -101.20,400.80 -101.60,400.00 -101.20,399.20 -100.00,398.40"/>
    </edge>
    <edge id=":A4_0" function="internal">
        <lane id=":A4_0_0" index="0" speed="3.65" length="4.67" shape="-100.00,701.60 -101.20,700.80 -101.60,700.00 -101.20,699.20 -100.00,698.40"/>
    </edge>
    <edge id=":A5_0" function="internal">
        <lane id=":A5_0_0" index="0" speed="3.65" length="4.67" shape="-100.00,1001.60 -101.20,1000.80 -101.60,1000.00 -101.20,999.20 -100.00,998.40"/>
    </edge>
    <edge id=":B0_0" function="internal">
        <lane id=":B0_0_0" index="0" speed="3.65" length="4.67" shape="198.40,-500.00 199.20,-501.20 200.00,-501.60 200.80,-501.20 201.60,-500.00"/>
    </edge>
    <edge id=":B1_0" function="internal">
        <lane id=":B1_0_0" index="0" speed="6.51" length="9.03" shape="195.20,-189.60 194.85,-192.05 193.80,-193.80 192.05,-194.85 189.60,-195.20"/>
    </edge>
    <edge id=":B1_1" function="internal">
        <lane id=":B1_1_0" index="0" speed="13.89" length="20.80" shape="195.20,-189.60 195.20,-210.40"/>
        <lane id=":B1_1_1" index="1" speed="13.89" length="20.80" shape="198.40,-189.60 198.40,-210.40"/>
    </edge>
    <edge id=":B1_3" function="internal">
        <lane id=":B1_3_0" index="0" speed="9.26" length="19.35" shape="198.40,-189.60 199.15,-194.85 201.40,-198.60 205.15,-200.85 210.40,-201.60"/>
    </edge>
    <edge id=":B1_4" function="internal">
        <lane id=":B1_4_0" index="0" speed="6.51" length="9.03" shape="210.40,-195.20 207.95,-194.85 206.20,-193.80 205.15,-192.05 204.80,-189.60"/>
    </edge>
    <edge id=":B1_5" function="internal">
        <lane id=":B1_5_0" index="0" speed="13.89" length="20.80" shape="210.40,-195.20 189.60,-195.20"/>
        <lane id=":B1_5_1" index="1" speed="13.89" length="20.80" shape="210.40,-198.40 189.60,-198.40"/>
    </edge>
    <edge id=":B1_7" function="internal">
        <lane id=":B1_7_0" index="0" speed="9.26" length="19.35" shape="210.40,-198.40 205.15,-199.15 201.40,-201.40 199.15,-205.15 198.40,-210.40"/>
    </edge>
    <edge id=":B1_8" function="internal">
        <lane id=":B1_8_0" index="0" speed="6.51" length="9.03" shape="204.80,-210.40 205.15,-207.95 206.20,-206.20 207.95,-205.15 210.40,-204.80"/>
    </edge>
    <edge id=":B1_9" function="internal">
        <lane id=":B1_9_0" index="0" speed="13.89" length="20.80" shape="204.80,-210.40 204.80,-189.60"/>
        <lane id=":B1_9_1" index="1" speed="13.89" length="20.80" shape="201.60,-210.40 201.60,-189.60"/>
    </edge>
    <edge id=":B1_11" function="internal">
        <lane id=":B1_11_0" index="0" speed="9.26" length="19.35" shape="201.60,-210.40 200.85,-205.15 198.60,-201.40 194.85,-199.15 189.60,-198.40"/>
    </edge>
    <edge id=":B1_12" function="internal">
        <lane id=":B1_12_0" index="0" speed="6.51" length="9.03" shape="189.60,-204.80 192.05,-205.15 193.80,-206.20 194.85,-207.95 195.20,-210.40"/>
    </edge>
    <edge id=":B1_13" function="internal">
        <lane id=":B1_13_0" index="0" speed="13.89" length="20.80" shape="189.60,-204.80 210.40,-204.80"/>
        <lane id=":B1_13_1" index="1" speed="13.89" length="20.80" shape="189.60,-201.60 210.40,-201.60"/>
    </edge>
    <edge id=":B1_15" function="internal">
        <lane id=":B1_15_0" index="0" speed="9.26" length="19.35" shape="189.60,-201.60 194.85,-200.85 198.60,-198.60 200.85,-194.85 201.60,-189.60"/>
    </edge>
    <edge id=":B2_0" function="internal">
        <lane id=":B2_0_0" index="0" speed="6.51" length="9.03" shape="195.20,110.40 194.85,107.95 193.80,106.20 192.05,105.15 189.60,104.80"/>
    </edge>
    <edge id=":B2_1" function="internal">
        <lane id=":B2_1_0" index="0" speed="13.89" length="20.80" shape="195.20,110.40 195.20,89.60"/>
        <lane id=":B2_1_1" index="1" speed="13.89" length="20.80" shape="198.40,110.40 198.40,89.60"/>
    </edge>
    <edge id=":B2_3" function="internal">
        <lane id=":B2_3_0" index="0" speed="9.26" length="19.35" shape="198.40,110.40 199.15,105.15 201.40,101.40 205.15,99.15 210.40,98.40"/>
    </edge>
    <edge id=":B2_4" function="internal">
        <lane id=":B2_4_0" index="0" speed="6.51" length="9.03" shape="210.40,104.80 207.95,105.15 206.20,106.20 205.15,107.95 204.80,110.40"/>
    </edge>
    <edge id=":B2_5" function="internal">
        <lane id=":B2_5_0" index="0" speed="13.89" length="20.80" shape="210.40,104.80 189.60,104.80"/>
        <lane id=":B2_5_1" index="1" speed="13.89" length="20.80" shape="210.40,101.60 189.60,101.60"/>
    </edge>
    <edge id=":B2_7" function="internal">
        <lane id=":B2_7_0" index="0" speed="9.26" length="19.35" shape="210.40,101.60 205.15,100.85 201.40,98.60 199.15,94.85 198.40,89.60"/>
    </edge>
    <edge id=":B2_8" function="internal">
        <lane id=":B2_8_0" index="0" speed="6.51" length="9.03" shape="204.80,89.60 205.15,92.05 206.20,93.80 207.95,94.85 210.40,95.20"/>
    </edge>
    <edge id=":B2_9" function="internal">
        <lane id=":B2_9_0" index="0" speed="13.89" length="20.80" shape="204.80,89.60 204.80,110.40"/>
        <lane id=":B2_9_1" index="1" speed="13.89" length="20.80" shape="201.60,89.60 201.60,110.40"/>
    </edge>
    <edge id=":B2_11" function="internal">
        <lane id=":B2_11_0" index="0" speed="9.26" length="19.35" shape="201.60,89.60 200.85,94.85 198.60,98.60 194.85,100.85 189.60,101.60"/>
    </edge>
    <edge id=":B2_12" function="internal">
        <lane id=":B2_12_0" index="0" speed="6.51" length="9.03" shape="189.60,95.20 192.05,94.85 193.80,93.80 194.85,92.05 195.20,89.60"/>
    </edge>
    <edge id=":B2_13" function="internal">
        <lane id=":B2_13_0" index="0" speed="13.89" length="20.80" shape="189.60,95.20 210.40,95.20"/>
        <lane id=":B2_13_1" index="1" speed="13.89" length="20.80" shape="189.60,98.40 210.40,98.40"/>
    </edge>
    <edge id=":B2_15" function="internal">
        <lane id=":B2_15_0" index="0" speed="9.26" length="19.35" shape="189.60,98.40 194.85,99.15 198.60,101.40 200.85,105.15 201.60,110.40"/>
    </edge>
    <edge id=":B3_0" function="internal">
        <lane id=":B3_0_0" index="0" speed="6.51" length="9.03" shape="195.20,410.40 194.85,407.95 193.80,406.20 192.05,405.15 189.60,404.80"/>
    </edge>
    <edge id=":B3_1" function="internal">
        <lane id=":B3_1_0" index="0" speed="13.89" length="20.80" shape="195.20,410.40 195.20,389.60"/>
        <lane id=":B3_1_1" index="1" speed="13.89" length="20.80" shape="198.40,410.40 198.40,389.60"/>
    </edge>
    <edge id=":B3_3" function="internal">
        <lane id=":B3_3_0" index="0" speed="9.26" length="19.35" shape="198.40,410.40 199.15,405.15 201.40,401.40 205.15,399.15 210.40,398.40"/>
    </edge>
    <edge id=":B3_4" function="internal">
        <lane id=":B3_4_0" index="0" speed="6.51" length="9.03" shape="210.40,404.80 207.95,405.15 206.20,406.20 205.15,407.95 204.80,410.40"/>
    </edge>
    <edge id=":B3_5" function="internal">
        <lane id=":B3_5_0" index="0" speed="13.89" length="20.80" shape="210.40,404.80 189.60,404.80"/>
        <lane id=":B3_5_1" index="1" speed="13.89" length="20.80" shape="210.40,401.60 189.60,401.60"/>
    </edge>
    <edge id=":B3_7" function="internal">
        <lane id=":B3_7_0" index="0" speed="9.26" length="19.35" shape="210.40,401.60 205.15,400.85 201.40,398.60 199.15,394.85 198.40,389.60"/>
    </edge>
    <edge id=":B3_8" function="internal">
        <lane id=":B3_8_0" index="0" speed="6.51" length="9.03" shape="204.80,389.60 205.15,392.05 206.20,393.80 207.95,394.85 210.40,395.20"/>
    </edge>
    <edge id=":B3_9" function="internal">
        <lane id=":B3_9_0" index="0" speed="13.89" length="20.80" shape="204.80,389.60 204.80,410.40"/>
        <lane id=":B3_9_1" index="1" speed="13.89" length="20.80" shape="201.60,389.60 201.60,410.40"/>
    </edge>
    <edge id=":B3_11" function="internal">
        <lane id=":B3_11_0" index="0" speed="9.26" length="19.35" shape="201.60,389.60 200.85,394.85 198.60,398.60 194.85,400.85 189.60,401.60"/>
    </edge>
    <edge id=":B3_12" function="internal">
        <lane id=":B3_12_0" index="0" speed="6.51" length="9.03" shape="189.60,395.20 192.05,394.85 193.80,393.80 194.85,392.05 195.20,389.60"/>
    </edge>
    <edge id=":B3_13" function="internal">
        <lane id=":B3_13_0" index="0" speed="13.89" length="20.80" shape="189.60,395.20 210.40,395.20"/>
        <lane id=":B3_13_1" index="1" speed="13.89" length="20.80" shape="189.60,398.40 210.40,398.40"/>
    </edge>
    <edge id=":B3_15" function="internal">
        <lane id=":B3_15_0" index="0" speed="9.26" length="19.35" shape="189.60,398.40 194.85,399.15 198.60,401.40 200.85,405.15 201.60,410.40"/>
    </edge>
    <edge id=":B4_0" function="internal">
        <lane id=":B4_0_0" index="0" speed="6.51" length="9.03" shape="195.20,710.40 194.85,707.95 193.80,706.20 192.05,705.15 189.60,704.80"/>
    </edge>
    <edge id=":B4_1" function="internal">
        <lane id=":B4_1_0" index="0" speed="13.89" length="20.80" shape="195.20,710.40 195.20,689.60"/>
        <lane id=":B4_1_1" index="1" speed="13.89" length="20.80" shape="198.40,710.40 198.40,689.60"/>
    </edge>
    <edge id=":B4_3" function="internal">
        <lane id=":B4_3_0" index="0" speed="9.26" length="19.35" shape="198.40,710.40 199.15,705.15 201.40,701.40 205.15,699.15 210.40,698.40"/>
    </edge>
    <edge id=":B4_4" function="internal">
        <lane id=":B4_4_0" index="0" speed="6.51" length="9.03" shape="210.40,704.80 207.95,705.15 206.20,706.20 205.15,707.95 204.80,710.40"/>
    </edge>
    <edge id=":B4_5" function="internal">
        <lane id=":B4_5_0" index="0" speed="13.89" length="20.80" shape="210.40,704.80 189.60,704.80"/>
        <lane id=":B4_5_1" index="1" speed="13.89" length="20.80" shape="210.40,701.60 189.60,701.60"/>
    </edge>
    <edge id=":B4_7" function="internal">
        <lane id=":B4_7_0" index="0" speed="9.26" length="19.35" shape="210.40,701.60 205.15,700.85 201.40,698.60 199.15,694.85 198.40,689.60"/>
    </edge>
    <edge id=":B4_8" function="internal">
        <lane id=":B4_8_0" index="0" speed="6.51" length="9.03" shape="204.80,689.60 205.15,692.05 206.20,693.80 207.95,694.85 210.40,695.20"/>
    </edge>
    <edge id=":B4_9" function="internal">
        <lane id=":B4_9_0" index="0" speed="13.89" length="20.80" shape="204.80,689.60 204.80,710.40"/>
        <lane id=":B4_9_1" index="1" speed="13.89" length="20.80" shape="201.60,689.60 201.60,710.40"/>
    </edge>
    <edge id=":B4_11" function="internal">
        <lane id=":B4_11_0" index="0" speed="9.26" length="19.35" shape="201.60,689.60 200.85,694.85 198.60,698.60 194.85,700.85 189.60,701.60"/>
    </edge>
    <edge id=":B4_12" function="internal">
        <lane id=":B4_12_0" index="0" speed="6.51" length="9.03" shape="189.60,695.20 192.05,694.85 193.80,693.80 194.85,692.05 195.20,689.60"/>
    </edge>
    <edge id=":B4_13" function="internal">
        <lane id=":B4_13_0" index="0" speed="13.89" length="20.80" shape="189.60,695.20 210.40,695.20"/>
        <lane id=":B4_13_1" index="1" speed="13.89" length="20.80" shape="189.60,698.40 210.40,698.40"/>
    </edge>
    <edge id=":B4_15" function="internal">
        <lane id=":B4_15_0" index="0" speed="9.26" length="19.35" shape="189.60,698.40 194.85,699.15 198.60,701.40 200.85,705.15 201.60,710.40"/>
    </edge>
    <edge id=":B5_0" function="internal">
        <lane id=":B5_0_0" index="0" speed="6.51" length="9.03" shape="195.20,1010.40 194.85,1007.95 193.80,1006.20 192.05,1005.15 189.60,1004.80"/>
    </edge>
    <edge id=":B5_1" function="internal">
        <lane id=":B5_1_0" index="0" speed="13.89" length="20.80" shape="195.20,1010.40 195.20,989.60"/>
        <lane id=":B5_1_1" index="1" speed="13.89" length="20.80" shape="198.40,1010.40 198.40,989.60"/>
    </edge>
    <edge id=":B5_3" function="internal">
        <lane id=":B5_3_0" index="0" speed="9.26" length="19.35" shape="198.40,1010.40 199.15,1005.15 201.40,1001.40 205.15,999.15 210.40,998.40"/>
    </edge>
    <edge id=":B5_4" function="internal">
        <lane id=":B5_4_0" index="0" speed="6.51" length="9.03" shape="210.40,1004.80 207.95,1005.15 206.20,1006.20 205.15,1007.95 204.80,1010.40"/>
    </edge>
    <edge id=":B5_5" function="internal">
        <lane id=":B5_5_0" index="0" speed="13.89" length="20.80" shape="210.40,1004.80 189.60,1004.80"/>
        <lane id=":B5_5_1" index="1" speed="13.89" length="20.80" shape="210.40,1001.60 189.60,1001.60"/>
    </edge>
    <edge id=":B5_7" function="internal">
        <lane id=":B5_7_0" index="0" speed="9.26" length="19.35" shape="210.40,1001.60 205.15,1000.85 201.40,998.60 199.15,994.85 198.40,989.60"/>
    </edge>
    <edge id=":B5_8" function="internal">
        <lane id=":B5_8_0" index="0" speed="6.51" length="9.03" shape="204.80,989.60 205.15,992.05 206.20,993.80 207.95,994.85 210.40,995.20"/>
    </edge>
    <edge id=":B5_9" function="internal">
        <lane id=":B5_9_0" index="0" speed="13.89" length="20.80" shape="204.80,989.60 204.80,1010.40"/>
        <lane id=":B5_9_1" index="1" speed="13.89" length="20.80" shape="201.60,989.60 201.60,1010.40"/>
    </edge>
    <edge id=":B5_11" function="internal">
        <lane id=":B5_11_0" index="0" speed="9.26" length="19.35" shape="201.60,989.60 200.85,994.85 198.60,998.60 194.85,1000.85 189.60,1001.60"/>
    </edge>
    <edge id=":B5_12" function="internal">
        <lane id=":B5_12_0" index="0" speed="6.51" length="9.03" shape="189.60,995.20 192.05,994.85 193.80,993.80 194.85,992.05 195.20,989.60"/>
    </edge>
    <edge id=":B5_13" function="internal">
        <lane id=":B5_13_0" index="0" speed="13.89" length="20.80" shape="189.60,995.20 210.40,995.20"/>
        <lane id=":B5_13_1" index="1" speed="13.89" length="20.80" shape="189.60,998.40 210.40,998.40"/>
    </edge>
    <edge id=":B5_15" function="internal">
        <lane id=":B5_15_0" index="0" speed="9.26" length="19.35" shape="189.60,998.40 194.85,999.15 198.60,1001.40 200.85,1005.15 201.60,1010.40"/>
    </edge>
    <edge id=":B6_0" function="internal">
        <lane id=":B6_0_0" index="0" speed="3.65" length="4.67" shape="201.60,1300.00 200.80,1301.20 200.00,1301.60 199.20,1301.20 198.40,1300.00"/>
    </edge>
    <edge id=":C0_0" function="internal">
        <lane id=":C0_0_0" index="0" speed="3.65" length="4.67" shape="498.40,-500.00 499.20,-501.20 500.00,-501.60 500.80,-501.20 501.60,-500.00"/>
    </edge>
    <edge id=":C1_0" function="internal">
        <lane id=":C1_0_0" index="0" speed="6.51" length="9.03" shape="495.20,-189.60 494.85,-192.05 493.80,-193.80 492.05,-194.85 489.60,-195.20"/>
    </edge>
    <edge id=":C1_1" function="internal">
        <lane id=":C1_1_0" index="0" speed="13.89" length="20.80" shape="495.20,-189.60 495.20,-210.40"/>
        <lane id=":C1_1_1" index="1" speed="13.89" length="20.80" shape="498.40,-189.60 498.40,-210.40"/>
    </edge>
    <edge id=":C1_3" function="internal">
        <lane id=":C1_3_0" index="0" speed="9.26" length="19.35" shape="498.40,-189.60 499.15,-194.85 501.40,-198.60 505.15,-200.85 510.40,-201.60"/>
    </edge>
    <edge id=":C1_4" function="internal">
        <lane id=":C1_4_0" index="0" speed="6.51" length="9.03" shape="510.40,-195.20 507.95,-194.85 506.20,-193.80 505.15,-192.05 504.80,-189.60"/>
    </edge>
    <edge id=":C1_5" function="internal">
        <lane id=":C1_5_0" index="0" speed="13.89" length="20.80" shape="510.40,-195.20 489.60,-195.20"/>
        <lane id=":C1_5_1" index="1" speed="13.89" length="20.80" shape="510.40,-198.40 489.60,-198.40"/>
    </edge>
    <edge id=":C1_7" function="internal">
        <lane id=":C1_7_0" index="0" speed="9.26" length="19.35" shape="510.40,-198.40 505.15,-199.15 501.40,-201.40 499.15,-205.15 498.40,-210.40"/>
    </edge>
    <edge id=":C1_8" function="internal">
        <lane id=":C1_8_0" index="0" speed="6.51" length="9.03" shape="504.80,-210.40 505.15,-207.95 506.20,-206.20 507.95,-205.15 510.40,-204.80"/>
    </edge>
    <edge id=":C1_9" function="internal">
        <lane id=":C1_9_0" index="0" speed="13.89" length="20.80" shape="504.80,-210.40 504.80,-189.60"/>
        <lane id=":C1_9_1" index="1" speed="13.89" length="20.80" shape="501.60,-210.40 501.60,-189.60"/>
    </edge>
    <edge id=":C1_11" function="internal">
        <lane id=":C1_11_0" index="0" speed="9.26" length="19.35" shape="501.60,-210.40 500.85,-205.15 498.60,-201.40 494.85,-199.15 489.60,-198.40"/>
    </edge>
    <edge id=":C1_12" function="internal">
        <lane id=":C1_12_0" index="0" speed="6.51" length="9.03" shape="489.60,-204.80 492.05,-205.15 493.80,-206.20 494.85,-207.95 495.20,-210.40"/>
    </edge>
    <edge id=":C1_13" function="internal">
        <lane id=":C1_13_0" index="0" speed="13.89" length="20.80" shape="489.60,-204.80 510.40,-204.80"/>
        <lane id=":C1_13_1" index="1" speed="13.89" length="20.80" shape="489.60,-201.60 510.40,-201.60"/>
    </edge>
    <edge id=":C1_15" function="internal">
        <lane id=":C1_15_0" index="0" speed="9.26" length="19.35" shape="489.60,-201.60 494.85,-200.85 498.60,-198.60 500.85,-194.85 501.60,-189.60"/>
    </edge>
    <edge id=":C2_0" function="internal">
        <lane id=":C2_0_0" index="0" speed="6.51" length="9.03" shape="495.20,110.40 494.85,107.95 493.80,106.20 492.05,105.15 489.60,104.80"/>
    </edge>
    <edge id=":C2_1" function="internal">
        <lane id=":C2_1_0" index="0" speed="13.89" length="20.80" shape="495.20,110.40 495.20,89.60"/>
        <lane id=":C2_1_1" index="1" speed="13.89" length="20.80" shape="498.40,110.40 498.40,89.60"/>
    </edge>
    <edge id=":C2_3" function="internal">
        <lane id=":C2_3_0" index="0" speed="9.26" length="19.35" shape="498.40,110.40 499.15,105.15 501.40,101.40 505.15,99.15 510.40,98.40"/>
    </edge>
    <edge id=":C2_4" function="internal">
        <lane id=":C2_4_0" index="0" speed="6.51" length="9.03" shape="510.40,104.80 507.95,105.15 506.20,106.20 505.15,107.95 504.80,110.40"/>
    </edge>
    <edge id=":C2_5" function="internal">
        <lane id=":C2_5_0" index="0" speed="13.89" length="20.80" shape="510.40,104.80 489.60,104.80"/>
        <lane id=":C2_5_1" index="1" speed="13.89" length="20.80" shape="510.40,101.60 489.60,101.60"/>
    </edge>
    <edge id=":C2_7" function="internal">
        <lane id=":C2_7_0" index="0" speed="9.26" length="19.35" shape="510.40,101.60 505.15,100.85 501.40,98.60 499.15,94.85 498.40,89.60"/>
    </edge>
    <edge id=":C2_8" function="internal">
        <lane id=":C2_8_0" index="0" speed="6.51" length="9.03" shape="504.80,89.60 505.15,92.05 506.20,93.80 507.95,94.85 510.40,95.20"/>
    </edge>
    <edge id=":C2_9" function="internal">
        <lane id=":C2_9_0" index="0" speed="13.89" length="20.80" shape="504.80,89.60 504.80,110.40"/>
        <lane id=":C2_9_1" index="1" speed="13.89" length="20.80" shape="501.60,89.60 501.60,110.40"/>
    </edge>
    <edge id=":C2_11" function="internal">
        <lane id=":C2_11_0" index="0" speed="9.26" length="19.35" shape="501.60,89.60 500.85,94.85 498.60,98.60 494.85,100.85 489.60,101.60"/>
    </edge>
    <edge id=":C2_12" function="internal">
        <lane id=":C2_12_0" index="0" speed="6.51" length="9.03" shape="489.60,95.20 492.05,94.85 493.80,93.80 494.85,92.05 495.20,89.60"/>
    </edge>
    <edge id=":C2_13" function="internal">
        <lane id=":C2_13_0" index="0" speed="13.89" length="20.80" shape="489.60,95.20 510.40,95.20"/>
        <lane id=":C2_13_1" index="1" speed="13.89" length="20.80" shape="489.60,98.40 510.40,98.40"/>
    </edge>
    <edge id=":C2_15" function="internal">
        <lane id=":C2_15_0" index="0" speed="9.26" length="19.35" shape="489.60,98.40 494.85,99.15 498.60,101.40 500.85,105.15 501.60,110.40"/>
    </edge>
    <edge id=":C3_0" function="internal">
        <lane id=":C3_0_0" index="0" speed="6.51" length="9.03" shape="495.20,410.40 494.85,407.95 493.80,406.20 492.05,405.15 489.60,404.80"/>
    </edge>
    <edge id=":C3_1" function="internal">
        <lane id=":C3_1_0" index="0" speed="13.89" length="20.80" shape="495.20,410.40 495.20,389.60"/>
        <lane id=":C3_1_1" index="1" speed="13.89" length="20.80" shape="498.40,410.40 498.40,389.60"/>
    </edge>
    <edge id=":C3_3" function="internal">
        <lane id=":C3_3_0" index="0" speed="9.26" length="19.35" shape="498.40,410.40 499.15,405.15 501.40,401.40 505.15,399.15 510.40,398.40"/>
    </edge>
    <edge id=":C3_4" function="internal">
        <lane id=":C3_4_0" index="0" speed="6.51" length="9.03" shape="510.40,404.80 507.95,405.15 506.20,406.20 505.15,407.95 504.80,410.40"/>
    </edge>
    <edge id=":C3_5" function="internal">
        <lane id=":C3_5_0" index="0" speed="13.89" length="20.80" shape="510.40,404.80 489.60,404.80"/>
        <lane id=":C3_5_1" index="1" speed="13.89" length="20.80" shape="510.40,401.60 489.60,401.60"/>
    </edge>
    <edge id=":C3_7" function="internal">
        <lane id=":C3_7_0" index="0" speed="9.26" length="19.35" shape="510.40,401.60 505.15,400.85 501.40,398.60 499.15,394.85 498.40,389.60"/>
    </edge>
    <edge id=":C3_8" function="internal">
        <lane id=":C3_8_0" index="0" speed="6.51" length="9.03" shape="504.80,389.60 505.15,392.05 506.20,393.80 507.95,394.85 510.40,395.20"/>
    </edge>
    <edge id=":C3_9" function="internal">
        <lane id=":C3_9_0" index="0" speed="13.89" length="20.80" shape="504.80,389.60 504.80,410.40"/>
        <lane id=":C3_9_1" index="1" speed="13.89" length="20.80" shape="501.60,389.60 501.60,410.40"/>
    </edge>
    <edge id=":C3_11" function="internal">
        <lane id=":C3_11_0" index="0" speed="9.26" length="19.35" shape="501.60,389.60 500.85,394.85 498.60,398.60 494.85,400.85 489.60,401.60"/>
    </edge>
    <edge id=":C3_12" function="internal">
        <lane id=":C3_12_0" index="0" speed="6.51" length="9.03" shape="489.60,395.20 492.05,394.85 493.80,393.80 494.85,392.05 495.20,389.60"/>
    </edge>
    <edge id=":C3_13" function="internal">
        <lane id=":C3_13_0" index="0" speed="13.89" length="20.80" shape="489.60,395.20 510.40,395.20"/>
        <lane id=":C3_13_1" index="1" speed="13.89" length="20.80" shape="489.60,398.40 510.40,398.40"/>
    </edge>
    <edge id=":C3_15" function="internal">
        <lane id=":C3_15_0" index="0" speed="9.26" length="19.35" shape="489.60,398.40 494.85,399.15 498.60,401.40 500.85,405.15 501.60,410.40"/>
    </edge>
    <edge id=":C4_0" function="internal">
        <lane id=":C4_0_0" index="0" speed="6.51" length="9.03" shape="495.20,710.40 494.85,707.95 493.80,706.20 492.05,705.15 489.60,704.80"/>
    </edge>
    <edge id=":C4_1" function="internal">
        <lane id=":C4_1_0" index="0" speed="13.89" length="20.80" shape="495.20,710.40 495.20,689.60"/>
        <lane id=":C4_1_1" index="1" speed="13.89" length="20.80" shape="498.40,710.40 498.40,689.60"/>
    </edge>
    <edge id=":C4_3" function="internal">
        <lane id=":C4_3_0" index="0" speed="9.26" length="19.36" shape="498.40,710.40 499.15,705.15 501.40,701.40 505.15,699.15 510.40,698.40"/>
    </edge>
    <edge id=":C4_4" function="internal">
        <lane id=":C4_4_0" index="0" speed="6.51" length="9.03" shape="510.40,704.80 507.95,705.15 506.20,706.20 505.15,707.95 504.80,710.40"/>
    </edge>
    <edge id=":C4_5" function="internal">
        <lane id=":C4_5_0" index="0" speed="13.89" length="20.80" shape="510.40,704.80 489.60,704.80"/>
        <lane id=":C4_5_1" index="1" speed="13.89" length="20.80" shape="510.40,701.60 489.60,701.60"/>
    </edge>
    <edge id=":C4_7" function="internal">
        <lane id=":C4_7_0" index="0" speed="9.26" length="19.36" shape="510.40,701.60 505.15,700.85 501.40,698.60 499.15,694.85 498.40,689.60"/>
    </edge>
    <edge id=":C4_8" function="internal">
        <lane id=":C4_8_0" index="0" speed="6.51" length="9.04" shape="504.80,689.60 505.15,692.05 506.20,693.80 507.95,694.85 510.40,695.20"/>
    </edge>
    <edge id=":C4_9" function="internal">
        <lane id=":C4_9_0" index="0" speed="13.89" length="20.80" shape="504.80,689.60 504.80,710.40"/>
        <lane id=":C4_9_1" index="1" speed="13.89" length="20.80" shape="501.60,689.60 501.60,710.40"/>
    </edge>
    <edge id=":C4_11" function="internal">
        <lane id=":C4_11_0" index="0" speed="9.26" length="19.35" shape="501.60,689.60 500.85,694.85 498.60,698.60 494.85,700.85 489.60,701.60"/>
    </edge>
    <edge id=":C4_12" function="internal">
        <lane id=":C4_12_0" index="0" speed="6.51" length="9.03" shape="489.60,695.20 492.05,694.85 493.80,693.80 494.85,692.05 495.20,689.60"/>
    </edge>
    <edge id=":C4_13" function="internal">
        <lane id=":C4_13_0" index="0" speed="13.89" length="20.80" shape="489.60,695.20 510.40,695.20"/>
        <lane id=":C4_13_1" index="1" speed="13.89" length="20.80" shape="489.60,698.40 510.40,698.40"/>
    </edge>
    <edge id=":C4_15" function="internal">
        <lane id=":C4_15_0" index="0" speed="9.26" length="19.35" shape="489.60,698.40 494.85,699.15 498.60,701.40 500.85,705.15 501.60,710.40"/>
    </edge>
    <edge id=":C5_0" function="internal">
        <lane id=":C5_0_0" index="0" speed="6.51" length="9.03" shape="495.20,1010.40 494.85,1007.95 493.80,1006.20 492.05,1005.15 489.60,1004.80"/>
    </edge>
    <edge id=":C5_1" function="internal">
        <lane id=":C5_1_0" index="0" speed="13.89" length="20.80" shape="495.20,1010.40 495.20,989.60"/>
        <lane id=":C5_1_1" index="1" speed="13.89" length="20.80" shape="498.40,1010.40 498.40,989.60"/>
    </edge>
    <edge id=":C5_3" function="internal">
        <lane id=":C5_3_0" index="0" speed="9.26" length="19.35" shape="498.40,1010.40 499.15,1005.15 501.40,1001.40 505.15,999.15 510.40,998.40"/>
    </edge>
    <edge id=":C5_4" function="internal">
        <lane id=":C5_4_0" index="0" speed="6.51" length="9.03" shape="510.40,1004.80 507.95,1005.15 506.20,1006.20 505.15,1007.95 504.80,1010.40"/>
    </edge>
    <edge id=":C5_5" function="internal">
        <lane id=":C5_5_0" index="0" speed="13.89" length="20.80" shape="510.40,1004.80 489.60,1004.80"/>
        <lane id=":C5_5_1" index="1" speed="13.89" length="20.80" shape="510.40,1001.60 489.60,1001.60"/>
    </edge>
    <edge id=":C5_7" function="internal">
        <lane id=":C5_7_0" index="0" speed="9.26" length="19.35" shape="510.40,1001.60 505.15,1000.85 501.40,998.60 499.15,994.85 498.40,989.60"/>
    </edge>
    <edge id=":C5_8" function="internal">
        <lane id=":C5_8_0" index="0" speed="6.51" length="9.03" shape="504.80,989.60 505.15,992.05 506.20,993.80 507.95,994.85 510.40,995.20"/>
    </edge>
    <edge id=":C5_9" function="internal">
        <lane id=":C5_9_0" index="0" speed="13.89" length="20.80" shape="504.80,989.60 504.80,1010.40"/>
        <lane id=":C5_9_1" index="1" speed="13.89" length="20.80" shape="501.60,989.60 501.60,1010.40"/>
    </edge>
    <edge id=":C5_11" function="internal">
        <lane id=":C5_11_0" index="0" speed="9.26" length="19.35" shape="501.60,989.60 500.85,994.85 498.60,998.60 494.85,1000.85 489.60,1001.60"/>
    </edge>
    <edge id=":C5_12" function="internal">
        <lane id=":C5_12_0" index="0" speed="6.51" length="9.03" shape="489.60,995.20 492.05,994.85 493.80,993.80 494.85,992.05 495.20,989.60"/>
    </edge>
    <edge id=":C5_13" function="internal">
        <lane id=":C5_13_0" index="0" speed="13.89" length="20.80" shape="489.60,995.20 510.40,995.20"/>
        <lane id=":C5_13_1" index="1" speed="13.89" length="20.80" shape="489.60,998.40 510.40,998.40"/>
    </edge>
    <edge id=":C5_15" function="internal">
        <lane id=":C5_15_0" index="0" speed="9.26" length="19.35" shape="489.60,998.40 494.85,999.15 498.60,1001.40 500.85,1005.15 501.60,1010.40"/>
    </edge>
    <edge id=":C6_0" function="internal">
        <lane id=":C6_0_0" index="0" speed="3.65" length="4.67" shape="501.60,1300.00 500.80,1301.20 500.00,1301.60 499.20,1301.20 498.40,1300.00"/>