<?xml version="1.0" encoding="UTF-8"?>

<!-- generated on 12/29/20 17:26:53 by Eclipse SUMO jtrrouter Version 1.3.1
<configuration xmlns:xsi="http://www.w3.org/2001/XMLSchema-instance" xsi:noNamespaceSchemaLocation="http://sumo.dlr.de/xsd/jtrrouterConfiguration.xsd">

    <input>
        <net-file value="./network.net.xml"/>
        <route-files value="./flows_dynamic.rou.xml"/>
    </input>

    <output>
        <output-file value="demand_dynamic.rou.xml"/>
    </output>

    <processing>
        <no-internal-links value="true"/>
        <turn-defaults value="20,70,10"/>
        <sink-edges value="-lane11,lane12,-lane1,lane5,-lane2,lane6,&#45;&#45;lane7,-lane8"/>
    </processing>

    <defaults>
        <departspeed value="max"/>
    </defaults>

    <random_number>
        <random value="true"/>
    </random_number>

</configuration>
-->

<routes xmlns:xsi="http://www.w3.org/2001/XMLSchema-instance" xsi:noNamespaceSchemaLocation="http://sumo.dlr.de/xsd/routes_file.xsd">
    <vType id="type1" length="5.00" maxSpeed="13.89" emissionClass="Energy/unknown" accel="2.6" decel="4.5" sigma="0.5"/>
    <vehicle id="flow_0.0" type="type1" depart="0.00" departSpeed="max">
        <route edges="lane1 -lane11"/>
    </vehicle>
    <vehicle id="flow_1.0" type="type1" depart="0.00" departSpeed="max">
        <route edges="lane2 lane4 lane6"/>
    </vehicle>
    <vehicle id="flow_12.0" type="type1" depart="0.00" departSpeed="max">
        <route edges="-lane7 -lane9 lane3 lane5"/>
    </vehicle>
    <vehicle id="flow_16.0" type="type1" depart="0.00" departSpeed="max">
        <route edges="lane8 lane10 lane12"/>
    </vehicle>
    <vehicle id="flow_2.0" type="type1" depart="0.00" departSpeed="max">
        <route edges="-lane5 -lane3 -lane1"/>
    </vehicle>
    <vehicle id="flow_3.0" type="type1" depart="0.00" departSpeed="max">
        <route edges="-lane6 -lane4 -lane9 -lane11"/>
    </vehicle>
    <vehicle id="flow_4.0" type="type1" depart="0.00" departSpeed="max">
        <route edges="lane11 lane9 lane7"/>
    </vehicle>
    <vehicle id="flow_8.0" type="type1" depart="0.00" departSpeed="max">
        <route edges="-lane12 -lane10 -lane8"/>
    </vehicle>
    <vehicle id="flow_0.1" type="type1" depart="7.20" departSpeed="max">
        <route edges="lane1 lane9 lane7"/>
    </vehicle>
    <vehicle id="flow_1.1" type="type1" depart="7.20" departSpeed="max">
        <route edges="lane2 -lane9 -lane11"/>
    </vehicle>
    <vehicle id="flow_2.1" type="type1" depart="7.20" departSpeed="max">
        <route edges="-lane5 -lane10 -lane4 -lane2"/>
    </vehicle>
    <vehicle id="flow_3.1" type="type1" depart="7.20" departSpeed="max">
        <route edges="-lane6 lane10 lane12"/>
    </vehicle>
    <vehicle id="flow_0.2" type="type1" depart="14.40" departSpeed="max">
        <route edges="lane1 lane3 lane5"/>
    </vehicle>
    <vehicle id="flow_1.2" type="type1" depart="14.40" departSpeed="max">
        <route edges="lane2 lane4 lane6"/>
    </vehicle>
    <vehicle id="flow_2.2" type="type1" depart="14.40" departSpeed="max">
        <route edges="-lane5 -lane3 lane9 lane7"/>
    </vehicle>
    <vehicle id="flow_3.2" type="type1" depart="14.40" departSpeed="max">
        <route edges="-lane6 lane10 lane12"/>
    </vehicle>
    <vehicle id="flow_12.1" type="type1" depart="18.00" departSpeed="max">
        <route edges="-lane7 lane4 lane6"/>
    </vehicle>
    <vehicle id="flow_16.1" type="type1" depart="18.00" departSpeed="max">
        <route edges="lane8 lane10 lane12"/>
    </vehicle>
    <vehicle id="flow_4.1" type="type1" depart="18.00" departSpeed="max">
        <route edges="lane11 lane9 -lane2"/>
    </vehicle>
    <vehicle id="flow_8.1" type="type1" depart="18.00" departSpeed="max">
        <route edges="-lane12 -lane10 -lane8"/>
    </vehicle>
    <vehicle id="flow_0.3" type="type1" depart="21.60" departSpeed="max">
        <route edges="lane1 -lane11"/>
    </vehicle>
    <vehicle id="flow_1.3" type="type1" depart="21.60" departSpeed="max">
        <route edges="lane2 lane4 lane6"/>
    </vehicle>
    <vehicle id="flow_2.3" type="type1" depart="21.60" departSpeed="max">
        <route edges="-lane5 -lane3 -lane1"/>
    </vehicle>
    <vehicle id="flow_3.3" type="type1" depart="21.60" departSpeed="max">
        <route edges="-lane6 -lane4 -lane2"/>
    </vehicle>
    <vehicle id="flow_0.4" type="type1" depart="28.80" departSpeed="max">
        <route edges="lane1 lane3 lane5"/>
    </vehicle>
    <vehicle id="flow_1.4" type="type1" depart="28.80" departSpeed="max">
        <route edges="lane2 lane4 lane6"/>
    </vehicle>
    <vehicle id="flow_2.4" type="type1" depart="28.80" departSpeed="max">
        <route edges="-lane5 -lane3 -lane1"/>
    </vehicle>
    <vehicle id="flow_3.4" type="type1" depart="28.80" departSpeed="max">
        <route edges="-lane6 -lane4 -lane2"/>
    </vehicle>
    <vehicle id="flow_0.5" type="type1" depart="36.00" departSpeed="max">
        <route edges="lane1 lane3 lane5"/>
    </vehicle>
    <vehicle id="flow_1.5" type="type1" depart="36.00" departSpeed="max">
        <route edges="lane2 lane7"/>
    </vehicle>
    <vehicle id="flow_12.2" type="type1" depart="36.00" departSpeed="max">
        <route edges="-lane7 -lane9 -lane11"/>
    </vehicle>
    <vehicle id="flow_16.2" type="type1" depart="36.00" departSpeed="max">
        <route edges="lane8 lane10 lane5"/>
    </vehicle>
    <vehicle id="flow_2.5" type="type1" depart="36.00" departSpeed="max">
        <route edges="-lane5 -lane3 -lane1"/>
    </vehicle>
    <vehicle id="flow_3.5" type="type1" depart="36.00" departSpeed="max">
        <route edges="-lane6 -lane4 -lane9 -lane11"/>
    </vehicle>
    <vehicle id="flow_4.2" type="type1" depart="36.00" departSpeed="max">
        <route edges="lane11 lane9 lane7"/>
    </vehicle>
    <vehicle id="flow_8.2" type="type1" depart="36.00" departSpeed="max">
        <route edges="-lane12 -lane10 -lane4 -lane2"/>
    </vehicle>
    <vehicle id="flow_0.6" type="type1" depart="43.20" departSpeed="max">
        <route edges="lane1 lane3 lane5"/>
    </vehicle>
    <vehicle id="flow_1.6" type="type1" depart="43.20" departSpeed="max">
        <route edges="lane2 lane7"/>
    </vehicle>
    <vehicle id="flow_2.6" type="type1" depart="43.20" departSpeed="max">
        <route edges="-lane5 -lane10 -lane8"/>
    </vehicle>
    <vehicle id="flow_3.6" type="type1" depart="43.20" departSpeed="max">
        <route edges="-lane6 -lane4 -lane2"/>
    </vehicle>
    <vehicle id="flow_0.7" type="type1" depart="50.40" departSpeed="max">
        <route edges="lane1 lane3 lane5"/>
    </vehicle>
    <vehicle id="flow_1.7" type="type1" depart="50.40" departSpeed="max">
        <route edges="lane2 lane4 lane6"/>
    </vehicle>
    <vehicle id="flow_2.7" type="type1" depart="50.40" departSpeed="max">
        <route edges="-lane5 -lane3 -lane1"/>
    </vehicle>
    <vehicle id="flow_3.7" type="type1" depart="50.40" departSpeed="max">
        <route edges="-lane6 -lane4 -lane2"/>
    </vehicle>
    <vehicle id="flow_12.3" type="type1" depart="54.00" departSpeed="max">
        <route edges="-lane7 -lane9 -lane11"/>
    </vehicle>
    <vehicle id="flow_16.3" type="type1" depart="54.00" departSpeed="max">
        <route edges="lane8 lane10 lane12"/>
    </vehicle>
    <vehicle id="flow_4.3" type="type1" depart="54.00" departSpeed="max">
        <route edges="lane11 lane9 lane7"/>
    </vehicle>
    <vehicle id="flow_8.3" type="type1" depart="54.00" departSpeed="max">
        <route edges="-lane12 -lane10 -lane8"/>
    </vehicle>
    <vehicle id="flow_0.8" type="type1" depart="57.60" departSpeed="max">
        <route edges="lane1 lane3 lane5"/>
    </vehicle>
    <vehicle id="flow_1.8" type="type1" depart="57.60" departSpeed="max">
        <route edges="lane2 lane4 lane6"/>
    </vehicle>
    <vehicle id="flow_2.8" type="type1" depart="57.60" departSpeed="max">
        <route edges="-lane5 -lane3 -lane1"/>
    </vehicle>
    <vehicle id="flow_3.8" type="type1" depart="57.60" departSpeed="max">
        <route edges="-lane6 -lane4 -lane9 -lane11"/>
    </vehicle>
    <vehicle id="flow_0.9" type="type1" depart="64.80" departSpeed="max">
        <route edges="lane1 lane9 lane7"/>
    </vehicle>
    <vehicle id="flow_1.9" type="type1" depart="64.80" departSpeed="max">
        <route edges="lane2 lane4 lane6"/>
    </vehicle>
    <vehicle id="flow_2.9" type="type1" depart="64.80" departSpeed="max">
        <route edges="-lane5 -lane3 -lane11"/>
    </vehicle>
    <vehicle id="flow_3.9" type="type1" depart="64.80" departSpeed="max">
        <route edges="-lane6 -lane4 -lane2"/>
    </vehicle>
    <vehicle id="flow_0.10" type="type1" depart="72.00" departSpeed="max">
        <route edges="lane1 lane3 lane12"/>
    </vehicle>
    <vehicle id="flow_1.10" type="type1" depart="72.00" departSpeed="max">
        <route edges="lane2 lane4 lane6"/>
    </vehicle>
    <vehicle id="flow_12.4" type="type1" depart="72.00" departSpeed="max">
        <route edges="-lane7 -lane9 -lane11"/>
    </vehicle>
    <vehicle id="flow_16.4" type="type1" depart="72.00" departSpeed="max">
        <route edges="lane8 lane10 lane5"/>
    </vehicle>
    <vehicle id="flow_2.10" type="type1" depart="72.00" departSpeed="max">
        <route edges="-lane5 -lane3 lane9 lane7"/>
    </vehicle>
    <vehicle id="flow_3.10" type="type1" depart="72.00" departSpeed="max">
        <route edges="-lane6 lane10 lane12"/>
    </vehicle>
    <vehicle id="flow_4.4" type="type1" depart="72.00" departSpeed="max">
        <route edges="lane11 lane9 lane7"/>
    </vehicle>
    <vehicle id="flow_8.4" type="type1" depart="72.00" departSpeed="max">
        <route edges="-lane12 -lane10 -lane8"/>
    </vehicle>
    <vehicle id="flow_0.11" type="type1" depart="79.20" departSpeed="max">
        <route edges="lane1 lane3 lane12"/>
    </vehicle>
    <vehicle id="flow_1.11" type="type1" depart="79.20" departSpeed="max">
        <route edges="lane2 lane4 -lane8"/>
    </vehicle>
    <vehicle id="flow_2.11" type="type1" depart="79.20" departSpeed="max">
        <route edges="-lane5 -lane3 -lane1"/>
    </vehicle>
    <vehicle id="flow_3.11" type="type1" depart="79.20" departSpeed="max">
        <route edges="-lane6 -lane4 -lane2"/>
    </vehicle>
    <vehicle id="flow_0.12" type="type1" depart="86.40" departSpeed="max">
        <route edges="lane1 lane3 lane5"/>
    </vehicle>
    <vehicle id="flow_1.12" type="type1" depart="86.40" departSpeed="max">
        <route edges="lane2 lane7"/>
    </vehicle>
    <vehicle id="flow_2.12" type="type1" depart="86.40" departSpeed="max">
        <route edges="-lane5 -lane3 -lane1"/>
    </vehicle>
    <vehicle id="flow_3.12" type="type1" depart="86.40" departSpeed="max">
        <route edges="-lane6 -lane4 -lane2"/>
    </vehicle>
    <vehicle id="flow_12.5" type="type1" depart="90.00" departSpeed="max">
        <route edges="-lane7 -lane9 -lane11"/>
    </vehicle>
    <vehicle id="flow_16.5" type="type1" depart="90.00" departSpeed="max">
        <route edges="lane8 lane10 lane12"/>
    </vehicle>
    <vehicle id="flow_4.5" type="type1" depart="90.00" departSpeed="max">
        <route edges="lane11 lane9 -lane2"/>
    </vehicle>
    <vehicle id="flow_8.5" type="type1" depart="90.00" departSpeed="max">
        <route edges="-lane12 -lane3 lane9 lane7"/>
    </vehicle>
    <vehicle id="flow_0.13" type="type1" depart="93.60" departSpeed="max">
        <route edges="lane1 lane3 lane5"/>
    </vehicle>
    <vehicle id="flow_1.13" type="type1" depart="93.60" departSpeed="max">
        <route edges="lane2 lane7"/>
    </vehicle>
    <vehicle id="flow_2.13" type="type1" depart="93.60" departSpeed="max">
        <route edges="-lane5 -lane10 -lane8"/>
    </vehicle>
    <vehicle id="flow_3.13" type="type1" depart="93.60" departSpeed="max">
        <route edges="-lane6 -lane8"/>
    </vehicle>
    <vehicle id="flow_0.14" type="type1" depart="100.80" departSpeed="max">
        <route edges="lane1 lane3 lane5"/>
    </vehicle>
    <vehicle id="flow_1.14" type="type1" depart="100.80" departSpeed="max">
        <route edges="lane2 lane4 lane6"/>
    </vehicle>
    <vehicle id="flow_2.14" type="type1" depart="100.80" departSpeed="max">
        <route edges="-lane5 -lane3 -lane1"/>
    </vehicle>
    <vehicle id="flow_3.14" type="type1" depart="100.80" departSpeed="max">
        <route edges="-lane6 -lane4 -lane9 -lane11"/>
    </vehicle>
    <vehicle id="flow_0.15" type="type1" depart="108.00" departSpeed="max">
        <route edges="lane1 lane9 -lane2"/>
    </vehicle>
    <vehicle id="flow_1.15" type="type1" depart="108.00" departSpeed="max">
        <route edges="lane2 lane4 lane6"/>
    </vehicle>
    <vehicle id="flow_12.6" type="type1" depart="108.00" departSpeed="max">
        <route edges="-lane7 lane4 -lane8"/>
    </vehicle>
    <vehicle id="flow_16.6" type="type1" depart="108.00" departSpeed="max">
        <route edges="lane8 lane10 lane12"/>
    </vehicle>
    <vehicle id="flow_2.15" type="type1" depart="108.00" departSpeed="max">
        <route edges="-lane5 -lane3 -lane1"/>
    </vehicle>
    <vehicle id="flow_3.15" type="type1" depart="108.00" departSpeed="max">
        <route edges="-lane6 -lane4 -lane2"/>
    </vehicle>
    <vehicle id="flow_4.6" type="type1" depart="108.00" departSpeed="max">
        <route edges="lane11 lane9 lane7"/>
    </vehicle>
    <vehicle id="flow_8.6" type="type1" depart="108.00" departSpeed="max">
        <route edges="-lane12 -lane10 lane6"/>
    </vehicle>
    <vehicle id="flow_0.16" type="type1" depart="115.20" departSpeed="max">
        <route edges="lane1 lane3 lane12"/>
    </vehicle>
    <vehicle id="flow_1.16" type="type1" depart="115.20" departSpeed="max">
        <route edges="lane2 lane4 lane6"/>
    </vehicle>
    <vehicle id="flow_2.16" type="type1" depart="115.20" departSpeed="max">
        <route edges="-lane5 lane12"/>
    </vehicle>
    <vehicle id="flow_3.16" type="type1" depart="115.20" departSpeed="max">
        <route edges="-lane6 -lane4 -lane2"/>
    </vehicle>
    <vehicle id="flow_0.17" type="type1" depart="122.40" departSpeed="max">
        <route edges="lane1 lane3 lane5"/>
    </vehicle>
    <vehicle id="flow_1.17" type="type1" depart="122.40" departSpeed="max">
        <route edges="lane2 lane4 -lane8"/>
    </vehicle>
    <vehicle id="flow_2.17" type="type1" depart="122.40" departSpeed="max">
        <route edges="-lane5 -lane3 -lane1"/>
    </vehicle>
    <vehicle id="flow_3.17" type="type1" depart="122.40" departSpeed="max">
        <route edges="-lane6 -lane4 -lane2"/>
    </vehicle>
    <vehicle id="flow_12.7" type="type1" depart="126.00" departSpeed="max">
        <route edges="-lane7 lane4 lane10 lane12"/>
    </vehicle>
    <vehicle id="flow_16.7" type="type1" depart="126.00" departSpeed="max">
        <route edges="lane8 lane10 lane12"/>
    </vehicle>
    <vehicle id="flow_4.7" type="type1" depart="126.00" departSpeed="max">
        <route edges="lane11 lane9 lane7"/>
    </vehicle>
    <vehicle id="flow_8.7" type="type1" depart="126.00" departSpeed="max">
        <route edges="-lane12 -lane10 lane6"/>
    </vehicle>
    <vehicle id="flow_0.18" type="type1" depart="129.60" departSpeed="max">
        <route edges="lane1 lane9 -lane2"/>
    </vehicle>
    <vehicle id="flow_1.18" type="type1" depart="129.60" departSpeed="max">
        <route edges="lane2 lane4 -lane8"/>
    </vehicle>
    <vehicle id="flow_2.18" type="type1" depart="129.60" departSpeed="max">
        <route edges="-lane5 -lane3 -lane11"/>
    </vehicle>
    <vehicle id="flow_3.18" type="type1" depart="129.60" departSpeed="max">
        <route edges="-lane6 -lane4 -lane9 -lane11"/>
    </vehicle>
    <vehicle id="flow_0.19" type="type1" depart="136.80" departSpeed="max">
        <route edges="lane1 lane9 lane7"/>
    </vehicle>
    <vehicle id="flow_1.19" type="type1" depart="136.80" departSpeed="max">
        <route edges="lane2 lane4 -lane8"/>
    </vehicle>
    <vehicle id="flow_2.19" type="type1" depart="136.80" departSpeed="max">
        <route edges="-lane5 -lane3 -lane1"/>
    </vehicle>
    <vehicle id="flow_3.19" type="type1" depart="136.80" departSpeed="max">
        <route edges="-lane6 -lane4 -lane2"/>
    </vehicle>
    <vehicle id="flow_0.20" type="type1" depart="144.00" departSpeed="max">
        <route edges="lane1 lane3 lane5"/>
    </vehicle>
    <vehicle id="flow_1.20" type="type1" depart="144.00" departSpeed="max">
        <route edges="lane2 -lane9 -lane11"/>
    </vehicle>
    <vehicle id="flow_12.8" type="type1" depart="144.00" departSpeed="max">
        <route edges="-lane7 -lane9 -lane11"/>
    </vehicle>
    <vehicle id="flow_16.8" type="type1" depart="144.00" departSpeed="max">
        <route edges="lane8 lane10 lane5"/>
    </vehicle>
    <vehicle id="flow_2.20" type="type1" depart="144.00" departSpeed="max">
        <route edges="-lane5 lane12"/>
    </vehicle>
    <vehicle id="flow_3.20" type="type1" depart="144.00" departSpeed="max">
        <route edges="-lane6 lane10 lane12"/>
    </vehicle>
    <vehicle id="flow_4.8" type="type1" depart="144.00" departSpeed="max">
        <route edges="lane11 lane9 -lane2"/>
    </vehicle>
    <vehicle id="flow_8.8" type="type1" depart="144.00" departSpeed="max">
        <route edges="-lane12 lane5"/>
    </vehicle>
    <vehicle id="flow_0.21" type="type1" depart="151.20" departSpeed="max">
        <route edges="lane1 lane3 lane5"/>
    </vehicle>
    <vehicle id="flow_1.21" type="type1" depart="151.20" departSpeed="max">
        <route edges="lane2 lane4 lane10 lane5"/>
    </vehicle>
    <vehicle id="flow_2.21" type="type1" depart="151.20" departSpeed="max">
        <route edges="-lane5 -lane3 -lane11"/>
    </vehicle>
    <vehicle id="flow_3.21" type="type1" depart="151.20" departSpeed="max">
        <route edges="-lane6 -lane8"/>
    </vehicle>
    <vehicle id="flow_0.22" type="type1" depart="158.40" departSpeed="max">
        <route edges="lane1 lane3 lane5"/>
    </vehicle>
    <vehicle id="flow_1.22" type="type1" depart="158.40" departSpeed="max">
        <route edges="lane2 lane4 lane6"/>
    </vehicle>
    <vehicle id="flow_2.22" type="type1" depart="158.40" departSpeed="max">
        <route edges="-lane5 lane12"/>
    </vehicle>
    <vehicle id="flow_3.22" type="type1" depart="158.40" departSpeed="max">
        <route edges="-lane6 lane10 lane12"/>
    </vehicle>
    <vehicle id="flow_12.9" type="type1" depart="162.00" departSpeed="max">
        <route edges="-lane7 lane4 lane6"/>
    </vehicle>
    <vehicle id="flow_16.9" type="type1" depart="162.00" departSpeed="max">
        <route edges="lane8 lane10 lane5"/>
    </vehicle>
    <vehicle id="flow_4.9" type="type1" depart="162.00" departSpeed="max">
        <route edges="lane11 lane9 lane7"/>
    </vehicle>
    <vehicle id="flow_8.9" type="type1" depart="162.00" departSpeed="max">
        <route edges="-lane12 -lane3 -lane1"/>
    </vehicle>
    <vehicle id="flow_0.23" type="type1" depart="165.60" departSpeed="max">
        <route edges="lane1 -lane11"/>
    </vehicle>
    <vehicle id="flow_1.23" type="type1" depart="165.60" departSpeed="max">
        <route edges="lane2 lane7"/>
    </vehicle>
    <vehicle id="flow_2.23" type="type1" depart="165.60" departSpeed="max">
        <route edges="-lane5 -lane3 -lane11"/>
    </vehicle>
    <vehicle id="flow_3.23" type="type1" depart="165.60" departSpeed="max">
        <route edges="-lane6 -lane8"/>
    </vehicle>
    <vehicle id="flow_0.24" type="type1" depart="172.80" departSpeed="max">
        <route edges="lane1 lane3 -lane10 -lane8"/>
    </vehicle>
    <vehicle id="flow_1.24" type="type1" depart="172.80" departSpeed="max">
        <route edges="lane2 lane4 lane6"/>
    </vehicle>
    <vehicle id="flow_2.24" type="type1" depart="172.80" departSpeed="max">
        <route edges="-lane5 -lane10 -lane8"/>
    </vehicle>
    <vehicle id="flow_3.24" type="type1" depart="172.80" departSpeed="max">
        <route edges="-lane6 -lane4 -lane9 -lane11"/>
    </vehicle>
    <vehicle id="flow_0.25" type="type1" depart="180.00" departSpeed="max">
        <route edges="lane1 lane3 -lane10 lane6"/>
    </vehicle>
    <vehicle id="flow_1.25" type="type1" depart="180.00" departSpeed="max">
        <route edges="lane2 lane4 lane6"/>
    </vehicle>
    <vehicle id="flow_12.10" type="type1" depart="180.00" departSpeed="max">
        <route edges="-lane7 lane4 lane6"/>
    </vehicle>
    <vehicle id="flow_16.10" type="type1" depart="180.00" departSpeed="max">
        <route edges="lane8 lane10 lane12"/>
    </vehicle>
    <vehicle id="flow_2.25" type="type1" depart="180.00" departSpeed="max">
        <route edges="-lane5 -lane3 -lane1"/>
    </vehicle>
    <vehicle id="flow_3.25" type="type1" depart="180.00" departSpeed="max">
        <route edges="-lane6 -lane4 -lane2"/>
    </vehicle>
    <vehicle id="flow_4.10" type="type1" depart="180.00" departSpeed="max">
        <route edges="lane11 lane9 lane4 lane6"/>
    </vehicle>
    <vehicle id="flow_8.10" type="type1" depart="180.00" departSpeed="max">
        <route edges="-lane12 -lane10 -lane8"/>
    </vehicle>
    <vehicle id="flow_0.26" type="type1" depart="187.20" departSpeed="max">
        <route edges="lane1 lane3 lane5"/>
    </vehicle>
    <vehicle id="flow_1.26" type="type1" depart="187.20" departSpeed="max">
        <route edges="lane2 lane4 lane6"/>
    </vehicle>
    <vehicle id="flow_2.26" type="type1" depart="187.20" departSpeed="max">
        <route edges="-lane5 -lane10 lane6"/>
    </vehicle>
    <vehicle id="flow_3.26" type="type1" depart="187.20" departSpeed="max">
        <route edges="-lane6 lane10 -lane3 -lane11"/>
    </vehicle>
    <vehicle id="flow_0.27" type="type1" depart="194.40" departSpeed="max">
        <route edges="lane1 lane3 -lane10 -lane8"/>
    </vehicle>
    <vehicle id="flow_1.27" type="type1" depart="194.40" departSpeed="max">
        <route edges="lane2 lane4 lane6"/>
    </vehicle>
    <vehicle id="flow_2.27" type="type1" depart="194.40" departSpeed="max">
        <route edges="-lane5 -lane3 -lane1"/>
    </vehicle>
    <vehicle id="flow_3.27" type="type1" depart="194.40" departSpeed="max">
        <route edges="-lane6 lane10 lane5"/>
    </vehicle>
    <vehicle id="flow_12.11" type="type1" depart="198.00" departSpeed="max">
        <route edges="-lane7 lane4 lane10 lane12"/>
    </vehicle>
    <vehicle id="flow_16.11" type="type1" depart="198.00" departSpeed="max">
        <route edges="lane8 lane10 lane5"/>
    </vehicle>
    <vehicle id="flow_4.11" type="type1" depart="198.00" departSpeed="max">
        <route edges="lane11 lane9 lane4 -lane8"/>
    </vehicle>
    <vehicle id="flow_8.11" type="type1" depart="198.00" departSpeed="max">
        <route edges="-lane12 -lane10 lane6"/>
    </vehicle>
    <vehicle id="flow_0.28" type="type1" depart="201.60" departSpeed="max">
        <route edges="lane1 lane3 lane5"/>
    </vehicle>
    <vehicle id="flow_1.28" type="type1" depart="201.60" departSpeed="max">
        <route edges="lane2 lane4 lane6"/>
    </vehicle>
    <vehicle id="flow_2.28" type="type1" depart="201.60" departSpeed="max">
        <route edges="-lane5 -lane10 -lane8"/>
    </vehicle>
    <vehicle id="flow_3.28" type="type1" depart="201.60" departSpeed="max">
        <route edges="-lane6 -lane4 -lane2"/>
    </vehicle>
    <vehicle id="flow_0.29" type="type1" depart="208.80" departSpeed="max">
        <route edges="lane1 lane3 lane5"/>
    </vehicle>
    <vehicle id="flow_1.29" type="type1" depart="208.80" departSpeed="max">
        <route edges="lane2 lane4 lane10 lane12"/>
    </vehicle>
    <vehicle id="flow_2.29" type="type1" depart="208.80" departSpeed="max">
        <route edges="-lane5 -lane10 -lane4 lane7"/>
    </vehicle>
    <vehicle id="flow_3.29" type="type1" depart="208.80" departSpeed="max">
        <route edges="-lane6 -lane4 -lane2"/>
    </vehicle>
    <vehicle id="flow_0.30" type="type1" depart="216.00" departSpeed="max">
        <route edges="lane1 -lane11"/>
    </vehicle>
    <vehicle id="flow_1.30" type="type1" depart="216.00" departSpeed="max">
        <route edges="lane2 lane4 lane6"/>
    </vehicle>
    <vehicle id="flow_12.12" type="type1" depart="216.00" departSpeed="max">
        <route edges="-lane7 -lane9 -lane11"/>
    </vehicle>
    <vehicle id="flow_16.12" type="type1" depart="216.00" departSpeed="max">
        <route edges="lane8 lane10 lane12"/>
    </vehicle>
    <vehicle id="flow_2.30" type="type1" depart="216.00" departSpeed="max">
        <route edges="-lane5 lane12"/>
    </vehicle>
    <vehicle id="flow_3.30" type="type1" depart="216.00" departSpeed="max">
        <route edges="-lane6 lane10 lane12"/>
    </vehicle>
    <vehicle id="flow_4.12" type="type1" depart="216.00" departSpeed="max">
        <route edges="lane11 lane9 lane7"/>
    </vehicle>
    <vehicle id="flow_8.12" type="type1" depart="216.00" departSpeed="max">
        <route edges="-lane12 -lane10 -lane8"/>
    </vehicle>
    <vehicle id="flow_0.31" type="type1" depart="223.20" departSpeed="max">
        <route edges="lane1 lane3 -lane10 -lane8"/>
    </vehicle>
    <vehicle id="flow_1.31" type="type1" depart="223.20" departSpeed="max">
        <route edges="lane2 lane4 lane10 lane12"/>
    </vehicle>
    <vehicle id="flow_2.31" type="type1" depart="223.20" departSpeed="max">
        <route edges="-lane5 -lane3 -lane1"/>
    </vehicle>
    <vehicle id="flow_3.31" type="type1" depart="223.20" departSpeed="max">
        <route edges="-lane6 -lane4 lane7"/>
    </vehicle>
    <vehicle id="flow_0.32" type="type1" depart="230.40" departSpeed="max">
        <route edges="lane1 -lane11"/>
    </vehicle>
    <vehicle id="flow_1.32" type="type1" depart="230.40" departSpeed="max">
        <route edges="lane2 lane4 -lane8"/>
    </vehicle>
    <vehicle id="flow_2.32" type="type1" depart="230.40" departSpeed="max">
        <route edges="-lane5 lane12"/>
    </vehicle>
    <vehicle id="flow_3.32" type="type1" depart="230.40" departSpeed="max">
        <route edges="-lane6 -lane4 -lane9 -lane11"/>
    </vehicle>
    <vehicle id="flow_12.13" type="type1" depart="234.00" departSpeed="max">
        <route edges="-lane7 -lane9 -lane11"/>
    </vehicle>
    <vehicle id="flow_16.13" type="type1" depart="234.00" departSpeed="max">
        <route edges="lane8 lane10 lane5"/>
    </vehicle>
    <vehicle id="flow_4.13" type="type1" depart="234.00" departSpeed="max">
        <route edges="lane11 lane9 lane7"/>
    </vehicle>
    <vehicle id="flow_8.13" type="type1" depart="234.00" departSpeed="max">
        <route edges="-lane12 -lane3 -lane1"/>
    </vehicle>
    <vehicle id="flow_0.33" type="type1" depart="237.60" departSpeed="max">
        <route edges="lane1 lane3 -lane10 -lane8"/>
    </vehicle>
    <vehicle id="flow_1.33" type="type1" depart="237.60" departSpeed="max">
        <route edges="lane2 lane7"/>
    </vehicle>
    <vehicle id="flow_2.33" type="type1" depart="237.60" departSpeed="max">
        <route edges="-lane5 -lane3 -lane1"/>
    </vehicle>
    <vehicle id="flow_3.33" type="type1" depart="237.60" departSpeed="max">
        <route edges="-lane6 -lane8"/>
    </vehicle>
    <vehicle id="flow_0.34" type="type1" depart="244.80" departSpeed="max">
        <route edges="lane1 lane3 lane12"/>
    </vehicle>
    <vehicle id="flow_1.34" type="type1" depart="244.80" departSpeed="max">
        <route edges="lane2 lane4 -lane8"/>
    </vehicle>
    <vehicle id="flow_2.34" type="type1" depart="244.80" departSpeed="max">
        <route edges="-lane5 lane12"/>
    </vehicle>
    <vehicle id="flow_3.34" type="type1" depart="244.80" departSpeed="max">
        <route edges="-lane6 -lane4 -lane2"/>
    </vehicle>
    <vehicle id="flow_0.35" type="type1" depart="252.00" departSpeed="max">
        <route edges="lane1 lane9 lane7"/>
    </vehicle>
    <vehicle id="flow_1.35" type="type1" depart="252.00" departSpeed="max">
        <route edges="lane2 -lane9 -lane11"/>
    </vehicle>
    <vehicle id="flow_12.14" type="type1" depart="252.00" departSpeed="max">
        <route edges="-lane7 lane4 lane6"/>
    </vehicle>
    <vehicle id="flow_16.14" type="type1" depart="252.00" departSpeed="max">
        <route edges="lane8 lane10 -lane3 -lane11"/>
    </vehicle>
    <vehicle id="flow_2.35" type="type1" depart="252.00" departSpeed="max">
        <route edges="-lane5 -lane3 -lane1"/>
    </vehicle>
    <vehicle id="flow_3.35" type="type1" depart="252.00" departSpeed="max">
        <route edges="-lane6 lane10 lane12"/>
    </vehicle>
    <vehicle id="flow_4.14" type="type1" depart="252.00" departSpeed="max">
        <route edges="lane11 lane9 lane7"/>
    </vehicle>
    <vehicle id="flow_8.14" type="type1" depart="252.00" departSpeed="max">
        <route edges="-lane12 -lane3 -lane1"/>
    </vehicle>
    <vehicle id="flow_0.36" type="type1" depart="259.20" departSpeed="max">
        <route edges="lane1 lane3 lane5"/>
    </vehicle>
    <vehicle id="flow_1.36" type="type1" depart="259.20" departSpeed="max">
        <route edges="lane2 lane4 lane10 lane12"/>
    </vehicle>
    <vehicle id="flow_2.36" type="type1" depart="259.20" departSpeed="max">
        <route edges="-lane5 -lane10 -lane8"/>
    </vehicle>
    <vehicle id="flow_3.36" type="type1" depart="259.20" departSpeed="max">
        <route edges="-lane6 -lane4 lane7"/>
    </vehicle>
    <vehicle id="flow_0.37" type="type1" depart="266.40" departSpeed="max">
        <route edges="lane1 lane3 lane5"/>
    </vehicle>
    <vehicle id="flow_1.37" type="type1" depart="266.40" departSpeed="max">
        <route edges="lane2 lane4 lane6"/>
    </vehicle>
    <vehicle id="flow_2.37" type="type1" depart="266.40" departSpeed="max">
        <route edges="-lane5 -lane3 -lane1"/>
    </vehicle>
    <vehicle id="flow_3.37" type="type1" depart="266.40" departSpeed="max">
        <route edges="-lane6 lane10 lane12"/>
    </vehicle>
    <vehicle id="flow_12.15" type="type1" depart="270.00" departSpeed="max">
        <route edges="-lane7 -lane9 lane3 lane5"/>