<?xml version="1.0" encoding="UTF-8"?>

<!-- generated on 2022-11-03 19:24:15 by Eclipse SUMO netedit Version 1.9.2
<configuration xmlns:xsi="http://www.w3.org/2001/XMLSchema-instance" xsi:noNamespaceSchemaLocation="http://sumo.dlr.de/xsd/netconvertConfiguration.xsd">

    <input>
        <sumo-net-file value="E:\Program\python\ray\sumo-manhattan-master\net.net.xml"/>
    </input>

    <output>
        <output-file value="E:\Program\python\ray\sumo-manhattan-master\net.net.xml"/>
    </output>

    <processing>
        <geometry.min-radius.fix.railways value="false"/>
        <geometry.max-grade.fix value="false"/>
        <offset.disable-normalization value="true"/>
        <lefthand value="false"/>
    </processing>

    <junctions>
        <no-turnarounds value="true"/>
        <junctions.corner-detail value="5"/>
        <junctions.limit-turn-speed value="5.5"/>
        <rectangular-lane-cut value="false"/>
    </junctions>

    <pedestrian>
        <walkingareas value="false"/>
    </pedestrian>

    <report>
        <aggregate-warnings value="5"/>
    </report>

</configuration>
-->

<net version="1.9" junctionCornerDetail="5" limitTurnSpeed="5.50" xmlns:xsi="http://www.w3.org/2001/XMLSchema-instance" xsi:noNamespaceSchemaLocation="http://sumo.dlr.de/xsd/net_file.xsd">

    <location netOffset="0.00,0.00" convBoundary="0.00,0.00,800.00,800.00" origBoundary="0.00,0.00,800.00,800.00" projParameter="!"/>

    <edge id=":A0_0" function="internal">
        <lane id=":A0_0_0" index="0" speed="11.12" length="28.38" shape="-8.00,9.60 -6.90,1.90 -3.60,-3.60 1.90,-6.90 9.60,-8.00"/>
        <lane id=":A0_0_1" index="1" speed="10.10" length="23.22" shape="-4.80,9.60 -3.90,3.30 -1.20,-1.20 3.30,-3.90 9.60,-4.80"/>
        <lane id=":A0_0_2" index="2" speed="8.96" length="18.06" shape="-1.60,9.60 -0.90,4.70 1.20,1.20 4.70,-0.90 9.60,-1.60"/>
    </edge>
    <edge id=":A0_3" function="internal">
        <lane id=":A0_3_0" index="0" speed="3.90" length="2.58" shape="9.60,8.00 8.90,8.10 8.40,8.40 8.10,8.90 8.00,9.60"/>
        <lane id=":A0_3_1" index="1" speed="6.08" length="7.74" shape="9.60,4.80 7.50,5.10 6.00,6.00 5.10,7.50 4.80,9.60"/>
        <lane id=":A0_3_2" index="2" speed="7.66" length="12.90" shape="9.60,1.60 6.10,2.10 3.60,3.60 2.10,6.10 1.60,9.60"/>
    </edge>
    <edge id=":A1_0" function="internal">
        <lane id=":A1_0_0" index="0" speed="13.89" length="27.20" shape="-8.00,213.60 -8.00,186.40"/>
        <lane id=":A1_0_1" index="1" speed="13.89" length="27.20" shape="-4.80,213.60 -4.80,186.40"/>
        <lane id=":A1_0_2" index="2" speed="13.89" length="27.20" shape="-1.60,213.60 -1.60,186.40"/>
    </edge>
    <edge id=":A1_3" function="internal">
        <lane id=":A1_3_0" index="0" speed="11.39" length="11.17" shape="-1.60,213.60 -0.65,204.15 -0.00,202.61"/>
        <lane id=":A1_3_1" index="1" speed="10.88" length="9.57" shape="-1.60,213.60 -0.65,205.55 -0.00,204.24"/>
        <lane id=":A1_3_2" index="2" speed="10.36" length="7.98" shape="-1.60,213.60 -0.65,206.95 0.00,205.87"/>
    </edge>
    <edge id=":A1_13" function="internal">
        <lane id=":A1_13_0" index="0" speed="11.39" length="18.68" shape="-0.00,202.61 2.20,197.40 6.95,193.35 13.60,192.00"/>
    </edge>
    <edge id=":A1_14" function="internal">
        <lane id=":A1_14_0" index="0" speed="10.88" length="17.57" shape="-0.00,204.24 2.20,199.80 6.95,196.35 13.60,195.20"/>
    </edge>
    <edge id=":A1_15" function="internal">
        <lane id=":A1_15_0" index="0" speed="10.36" length="16.53" shape="0.00,205.87 2.20,202.20 6.95,199.35 13.60,198.40"/>
    </edge>
    <edge id=":A1_6" function="internal">
        <lane id=":A1_6_0" index="0" speed="6.51" length="9.03" shape="13.60,208.00 11.15,208.35 9.40,209.40 8.35,211.15 8.00,213.60"/>
    </edge>
    <edge id=":A1_7" function="internal">
        <lane id=":A1_7_0" index="0" speed="11.36" length="29.67" shape="13.60,204.80 5.55,203.65 -0.20,200.20 -3.65,194.45 -4.80,186.40"/>
        <lane id=":A1_7_1" index="1" speed="10.36" length="24.51" shape="13.60,201.60 6.95,200.65 2.20,197.80 -0.65,193.05 -1.60,186.40"/>
    </edge>
    <edge id=":A1_9" function="internal">
        <lane id=":A1_9_0" index="0" speed="6.51" length="9.03" shape="8.00,186.40 8.35,188.85 9.40,190.60 11.15,191.65 13.60,192.00"/>
    </edge>
    <edge id=":A1_10" function="internal">
        <lane id=":A1_10_0" index="0" speed="13.89" length="27.20" shape="8.00,186.40 8.00,213.60"/>
        <lane id=":A1_10_1" index="1" speed="13.89" length="27.20" shape="4.80,186.40 4.80,213.60"/>
        <lane id=":A1_10_2" index="2" speed="13.89" length="27.20" shape="1.60,186.40 1.60,213.60"/>
    </edge>
    <edge id=":A2_0" function="internal">
        <lane id=":A2_0_0" index="0" speed="13.89" length="27.20" shape="-8.00,413.60 -8.00,386.40"/>
        <lane id=":A2_0_1" index="1" speed="13.89" length="27.20" shape="-4.80,413.60 -4.80,386.40"/>
        <lane id=":A2_0_2" index="2" speed="13.89" length="27.20" shape="-1.60,413.60 -1.60,386.40"/>
    </edge>
    <edge id=":A2_3" function="internal">
        <lane id=":A2_3_0" index="0" speed="11.39" length="11.17" shape="-1.60,413.60 -0.65,404.15 -0.00,402.61"/>
        <lane id=":A2_3_1" index="1" speed="10.88" length="9.57" shape="-1.60,413.60 -0.65,405.55 0.00,404.24"/>
        <lane id=":A2_3_2" index="2" speed="10.36" length="7.98" shape="-1.60,413.60 -0.65,406.95 0.00,405.87"/>
    </edge>
    <edge id=":A2_13" function="internal">
        <lane id=":A2_13_0" index="0" speed="11.39" length="18.68" shape="-0.00,402.61 2.20,397.40 6.95,393.35 13.60,392.00"/>
    </edge>
    <edge id=":A2_14" function="internal">
        <lane id=":A2_14_0" index="0" speed="10.88" length="17.57" shape="0.00,404.24 2.20,399.80 6.95,396.35 13.60,395.20"/>
    </edge>
    <edge id=":A2_15" function="internal">
        <lane id=":A2_15_0" index="0" speed="10.36" length="16.53" shape="0.00,405.87 2.20,402.20 6.95,399.35 13.60,398.40"/>
    </edge>
    <edge id=":A2_6" function="internal">
        <lane id=":A2_6_0" index="0" speed="6.51" length="9.03" shape="13.60,408.00 11.15,408.35 9.40,409.40 8.35,411.15 8.00,413.60"/>
    </edge>
    <edge id=":A2_7" function="internal">
        <lane id=":A2_7_0" index="0" speed="11.36" length="29.67" shape="13.60,404.80 5.55,403.65 -0.20,400.20 -3.65,394.45 -4.80,386.40"/>
        <lane id=":A2_7_1" index="1" speed="10.36" length="24.51" shape="13.60,401.60 6.95,400.65 2.20,397.80 -0.65,393.05 -1.60,386.40"/>
    </edge>
    <edge id=":A2_9" function="internal">
        <lane id=":A2_9_0" index="0" speed="6.51" length="9.03" shape="8.00,386.40 8.35,388.85 9.40,390.60 11.15,391.65 13.60,392.00"/>
    </edge>
    <edge id=":A2_10" function="internal">
        <lane id=":A2_10_0" index="0" speed="13.89" length="27.20" shape="8.00,386.40 8.00,413.60"/>
        <lane id=":A2_10_1" index="1" speed="13.89" length="27.20" shape="4.80,386.40 4.80,413.60"/>
        <lane id=":A2_10_2" index="2" speed="13.89" length="27.20" shape="1.60,386.40 1.60,413.60"/>
    </edge>
    <edge id=":A3_0" function="internal">
        <lane id=":A3_0_0" index="0" speed="13.89" length="27.20" shape="-8.00,613.60 -8.00,586.40"/>
        <lane id=":A3_0_1" index="1" speed="13.89" length="27.20" shape="-4.80,613.60 -4.80,586.40"/>
        <lane id=":A3_0_2" index="2" speed="13.89" length="27.20" shape="-1.60,613.60 -1.60,586.40"/>
    </edge>
    <edge id=":A3_3" function="internal">
        <lane id=":A3_3_0" index="0" speed="11.39" length="11.17" shape="-1.60,613.60 -0.65,604.15 -0.00,602.61"/>
        <lane id=":A3_3_1" index="1" speed="10.88" length="9.57" shape="-1.60,613.60 -0.65,605.55 -0.00,604.24"/>
        <lane id=":A3_3_2" index="2" speed="10.36" length="7.98" shape="-1.60,613.60 -0.65,606.95 -0.00,605.87"/>
    </edge>
    <edge id=":A3_13" function="internal">
        <lane id=":A3_13_0" index="0" speed="11.39" length="18.68" shape="-0.00,602.61 2.20,597.40 6.95,593.35 13.60,592.00"/>
    </edge>
    <edge id=":A3_14" function="internal">
        <lane id=":A3_14_0" index="0" speed="10.88" length="17.57" shape="-0.00,604.24 2.20,599.80 6.95,596.35 13.60,595.20"/>
    </edge>
    <edge id=":A3_15" function="internal">
        <lane id=":A3_15_0" index="0" speed="10.36" length="16.53" shape="-0.00,605.87 2.20,602.20 6.95,599.35 13.60,598.40"/>
    </edge>
    <edge id=":A3_6" function="internal">
        <lane id=":A3_6_0" index="0" speed="6.51" length="9.03" shape="13.60,608.00 11.15,608.35 9.40,609.40 8.35,611.15 8.00,613.60"/>
    </edge>
    <edge id=":A3_7" function="internal">
        <lane id=":A3_7_0" index="0" speed="11.36" length="29.67" shape="13.60,604.80 5.55,603.65 -0.20,600.20 -3.65,594.45 -4.80,586.40"/>
        <lane id=":A3_7_1" index="1" speed="10.36" length="24.51" shape="13.60,601.60 6.95,600.65 2.20,597.80 -0.65,593.05 -1.60,586.40"/>
    </edge>
    <edge id=":A3_9" function="internal">
        <lane id=":A3_9_0" index="0" speed="6.51" length="9.03" shape="8.00,586.40 8.35,588.85 9.40,590.60 11.15,591.65 13.60,592.00"/>
    </edge>
    <edge id=":A3_10" function="internal">
        <lane id=":A3_10_0" index="0" speed="13.89" length="27.20" shape="8.00,586.40 8.00,613.60"/>
        <lane id=":A3_10_1" index="1" speed="13.89" length="27.20" shape="4.80,586.40 4.80,613.60"/>
        <lane id=":A3_10_2" index="2" speed="13.89" length="27.20" shape="1.60,586.40 1.60,613.60"/>
    </edge>
    <edge id=":A4_0" function="internal">
        <lane id=":A4_0_0" index="0" speed="11.12" length="28.38" shape="9.60,808.00 1.90,806.90 -3.60,803.60 -6.90,798.10 -8.00,790.40"/>
        <lane id=":A4_0_1" index="1" speed="10.10" length="23.22" shape="9.60,804.80 3.30,803.90 -1.20,801.20 -3.90,796.70 -4.80,790.40"/>
        <lane id=":A4_0_2" index="2" speed="8.96" length="18.06" shape="9.60,801.60 4.70,800.90 1.20,798.80 -0.90,795.30 -1.60,790.40"/>
    </edge>
    <edge id=":A4_3" function="internal">
        <lane id=":A4_3_0" index="0" speed="3.90" length="2.58" shape="8.00,790.40 8.10,791.10 8.40,791.60 8.90,791.90 9.60,792.00"/>
        <lane id=":A4_3_1" index="1" speed="6.08" length="7.74" shape="4.80,790.40 5.10,792.50 6.00,794.00 7.50,794.90 9.60,795.20"/>
        <lane id=":A4_3_2" index="2" speed="7.66" length="12.90" shape="1.60,790.40 2.10,793.90 3.60,796.40 6.10,797.90 9.60,798.40"/>
    </edge>
    <edge id=":B0_0" function="internal">
        <lane id=":B0_0_0" index="0" speed="6.51" length="9.03" shape="192.00,13.60 191.65,11.15 190.60,9.40 188.85,8.35 186.40,8.00"/>
    </edge>
    <edge id=":B0_1" function="internal">
        <lane id=":B0_1_0" index="0" speed="11.36" length="29.67" shape="195.20,13.60 196.35,5.55 199.80,-0.20 205.55,-3.65 213.60,-4.80"/>
        <lane id=":B0_1_1" index="1" speed="10.36" length="24.51" shape="198.40,13.60 199.35,6.95 202.20,2.20 206.95,-0.65 213.60,-1.60"/>
    </edge>
    <edge id=":B0_3" function="internal">
        <lane id=":B0_3_0" index="0" speed="6.51" length="9.03" shape="213.60,8.00 211.15,8.35 209.40,9.40 208.35,11.15 208.00,13.60"/>
    </edge>
    <edge id=":B0_4" function="internal">
        <lane id=":B0_4_0" index="0" speed="13.89" length="27.20" shape="213.60,8.00 186.40,8.00"/>
        <lane id=":B0_4_1" index="1" speed="13.89" length="27.20" shape="213.60,4.80 186.40,4.80"/>
        <lane id=":B0_4_2" index="2" speed="13.89" length="27.20" shape="213.60,1.60 186.40,1.60"/>
    </edge>
    <edge id=":B0_7" function="internal">
        <lane id=":B0_7_0" index="0" speed="13.89" length="27.20" shape="186.40,-8.00 213.60,-8.00"/>
        <lane id=":B0_7_1" index="1" speed="13.89" length="27.20" shape="186.40,-4.80 213.60,-4.80"/>
        <lane id=":B0_7_2" index="2" speed="13.89" length="27.20" shape="186.40,-1.60 213.60,-1.60"/>
    </edge>
    <edge id=":B0_10" function="internal">
        <lane id=":B0_10_0" index="0" speed="11.39" length="11.17" shape="186.40,-1.60 195.85,-0.65 197.39,-0.00"/>
        <lane id=":B0_10_1" index="1" speed="10.88" length="9.57" shape="186.40,-1.60 194.45,-0.65 195.76,-0.00"/>
        <lane id=":B0_10_2" index="2" speed="10.36" length="7.98" shape="186.40,-1.60 193.05,-0.65 194.13,0.00"/>
    </edge>
    <edge id=":B0_13" function="internal">
        <lane id=":B0_13_0" index="0" speed="11.39" length="18.68" shape="197.39,-0.00 202.60,2.20 206.65,6.95 208.00,13.60"/>
    </edge>
    <edge id=":B0_14" function="internal">
        <lane id=":B0_14_0" index="0" speed="10.88" length="17.57" shape="195.76,-0.00 200.20,2.20 203.65,6.95 204.80,13.60"/>
    </edge>
    <edge id=":B0_15" function="internal">
        <lane id=":B0_15_0" index="0" speed="10.36" length="16.53" shape="194.13,0.00 197.80,2.20 200.65,6.95 201.60,13.60"/>
    </edge>
    <edge id=":B1_0" function="internal">
        <lane id=":B1_0_0" index="0" speed="6.51" length="9.03" shape="192.00,213.60 191.65,211.15 190.60,209.40 188.85,208.35 186.40,208.00"/>
    </edge>
    <edge id=":B1_1" function="internal">
        <lane id=":B1_1_0" index="0" speed="13.89" length="27.20" shape="192.00,213.60 192.00,186.40"/>
        <lane id=":B1_1_1" index="1" speed="13.89" length="27.20" shape="195.20,213.60 195.20,186.40"/>
        <lane id=":B1_1_2" index="2" speed="13.89" length="27.20" shape="198.40,213.60 198.40,186.40"/>
    </edge>
    <edge id=":B1_4" function="internal">
        <lane id=":B1_4_0" index="0" speed="10.36" length="7.98" shape="198.40,213.60 199.35,206.95 200.00,205.87"/>
    </edge>
    <edge id=":B1_20" function="internal">
        <lane id=":B1_20_0" index="0" speed="10.36" length="16.53" shape="200.00,205.87 202.20,202.20 206.95,199.35 213.60,198.40"/>
    </edge>
    <edge id=":B1_5" function="internal">
        <lane id=":B1_5_0" index="0" speed="6.51" length="9.03" shape="213.60,208.00 211.15,208.35 209.40,209.40 208.35,211.15 208.00,213.60"/>
    </edge>
    <edge id=":B1_6" function="internal">
        <lane id=":B1_6_0" index="0" speed="13.89" length="27.20" shape="213.60,208.00 186.40,208.00"/>
        <lane id=":B1_6_1" index="1" speed="13.89" length="27.20" shape="213.60,204.80 186.40,204.80"/>
        <lane id=":B1_6_2" index="2" speed="13.89" length="27.20" shape="213.60,201.60 186.40,201.60"/>
    </edge>
    <edge id=":B1_9" function="internal">
        <lane id=":B1_9_0" index="0" speed="10.36" length="7.98" shape="213.60,201.60 206.95,200.65 205.87,200.00"/>
    </edge>
    <edge id=":B1_21" function="internal">
        <lane id=":B1_21_0" index="0" speed="10.36" length="16.53" shape="205.87,200.00 202.20,197.80 199.35,193.05 198.40,186.40"/>
    </edge>
    <edge id=":B1_10" function="internal">
        <lane id=":B1_10_0" index="0" speed="6.51" length="9.03" shape="208.00,186.40 208.35,188.85 209.40,190.60 211.15,191.65 213.60,192.00"/>
    </edge>
    <edge id=":B1_11" function="internal">
        <lane id=":B1_11_0" index="0" speed="13.89" length="27.20" shape="208.00,186.40 208.00,213.60"/>
        <lane id=":B1_11_1" index="1" speed="13.89" length="27.20" shape="204.80,186.40 204.80,213.60"/>
        <lane id=":B1_11_2" index="2" speed="13.89" length="27.20" shape="201.60,186.40 201.60,213.60"/>
    </edge>
    <edge id=":B1_14" function="internal">
        <lane id=":B1_14_0" index="0" speed="10.36" length="7.98" shape="201.60,186.40 200.65,193.05 200.00,194.13"/>
    </edge>
    <edge id=":B1_22" function="internal">
        <lane id=":B1_22_0" index="0" speed="10.36" length="16.53" shape="200.00,194.13 197.80,197.80 193.05,200.65 186.40,201.60"/>
    </edge>
    <edge id=":B1_15" function="internal">
        <lane id=":B1_15_0" index="0" speed="6.51" length="9.03" shape="186.40,192.00 188.85,191.65 190.60,190.60 191.65,188.85 192.00,186.40"/>
    </edge>
    <edge id=":B1_16" function="internal">
        <lane id=":B1_16_0" index="0" speed="13.89" length="27.20" shape="186.40,192.00 213.60,192.00"/>
        <lane id=":B1_16_1" index="1" speed="13.89" length="27.20" shape="186.40,195.20 213.60,195.20"/>
        <lane id=":B1_16_2" index="2" speed="13.89" length="27.20" shape="186.40,198.40 213.60,198.40"/>
    </edge>
    <edge id=":B1_19" function="internal">
        <lane id=":B1_19_0" index="0" speed="10.36" length="7.98" shape="186.40,198.40 193.05,199.35 194.13,200.00"/>
    </edge>
    <edge id=":B1_23" function="internal">
        <lane id=":B1_23_0" index="0" speed="10.36" length="16.53" shape="194.13,200.00 197.80,202.20 200.65,206.95 201.60,213.60"/>
    </edge>
    <edge id=":B2_0" function="internal">
        <lane id=":B2_0_0" index="0" speed="6.51" length="9.03" shape="192.00,413.60 191.65,411.15 190.60,409.40 188.85,408.35 186.40,408.00"/>
    </edge>
    <edge id=":B2_1" function="internal">
        <lane id=":B2_1_0" index="0" speed="13.89" length="27.20" shape="192.00,413.60 192.00,386.40"/>
        <lane id=":B2_1_1" index="1" speed="13.89" length="27.20" shape="195.20,413.60 195.20,386.40"/>
        <lane id=":B2_1_2" index="2" speed="13.89" length="27.20" shape="198.40,413.60 198.40,386.40"/>
    </edge>
    <edge id=":B2_4" function="internal">
        <lane id=":B2_4_0" index="0" speed="10.36" length="7.98" shape="198.40,413.60 199.35,406.95 200.00,405.87"/>
    </edge>
    <edge id=":B2_20" function="internal">
        <lane id=":B2_20_0" index="0" speed="10.36" length="16.53" shape="200.00,405.87 202.20,402.20 206.95,399.35 213.60,398.40"/>
    </edge>
    <edge id=":B2_5" function="internal">
        <lane id=":B2_5_0" index="0" speed="6.51" length="9.03" shape="213.60,408.00 211.15,408.35 209.40,409.40 208.35,411.15 208.00,413.60"/>
    </edge>
    <edge id=":B2_6" function="internal">
        <lane id=":B2_6_0" index="0" speed="13.89" length="27.20" shape="213.60,408.00 186.40,408.00"/>
        <lane id=":B2_6_1" index="1" speed="13.89" length="27.20" shape="213.60,404.80 186.40,404.80"/>
        <lane id=":B2_6_2" index="2" speed="13.89" length="27.20" shape="213.60,401.60 186.40,401.60"/>
    </edge>
    <edge id=":B2_9" function="internal">
        <lane id=":B2_9_0" index="0" speed="10.36" length="7.98" shape="213.60,401.60 206.95,400.65 205.87,400.00"/>
    </edge>
    <edge id=":B2_21" function="internal">
        <lane id=":B2_21_0" index="0" speed="10.36" length="16.53" shape="205.87,400.00 202.20,397.80 199.35,393.05 198.40,386.40"/>
    </edge>
    <edge id=":B2_10" function="internal">
        <lane id=":B2_10_0" index="0" speed="6.51" length="9.03" shape="208.00,386.40 208.35,388.85 209.40,390.60 211.15,391.65 213.60,392.00"/>
    </edge>
    <edge id=":B2_11" function="internal">
        <lane id=":B2_11_0" index="0" speed="13.89" length="27.20" shape="208.00,386.40 208.00,413.60"/>
        <lane id=":B2_11_1" index="1" speed="13.89" length="27.20" shape="204.80,386.40 204.80,413.60"/>
        <lane id=":B2_11_2" index="2" speed="13.89" length="27.20" shape="201.60,386.40 201.60,413.60"/>
    </edge>
    <edge id=":B2_14" function="internal">
        <lane id=":B2_14_0" index="0" speed="10.36" length="7.98" shape="201.60,386.40 200.65,393.05 200.00,394.13"/>
    </edge>
    <edge id=":B2_22" function="internal">
        <lane id=":B2_22_0" index="0" speed="10.36" length="16.53" shape="200.00,394.13 197.80,397.80 193.05,400.65 186.40,401.60"/>
    </edge>
    <edge id=":B2_15" function="internal">
        <lane id=":B2_15_0" index="0" speed="6.51" length="9.03" shape="186.40,392.00 188.85,391.65 190.60,390.60 191.65,388.85 192.00,386.40"/>
    </edge>
    <edge id=":B2_16" function="internal">
        <lane id=":B2_16_0" index="0" speed="13.89" length="27.20" shape="186.40,392.00 213.60,392.00"/>
        <lane id=":B2_16_1" index="1" speed="13.89" length="27.20" shape="186.40,395.20 213.60,395.20"/>
        <lane id=":B2_16_2" index="2" speed="13.89" length="27.20" shape="186.40,398.40 213.60,398.40"/>
    </edge>
    <edge id=":B2_19" function="internal">
        <lane id=":B2_19_0" index="0" speed="10.36" length="7.98" shape="186.40,398.40 193.05,399.35 194.13,400.00"/>
    </edge>
    <edge id=":B2_23" function="internal">
        <lane id=":B2_23_0" index="0" speed="10.36" length="16.53" shape="194.13,400.00 197.80,402.20 200.65,406.95 201.60,413.60"/>
    </edge>
    <edge id=":B3_0" function="internal">
        <lane id=":B3_0_0" index="0" speed="6.51" length="9.03" shape="192.00,613.60 191.65,611.15 190.60,609.40 188.85,608.35 186.40,608.00"/>
    </edge>
    <edge id=":B3_1" function="internal">
        <lane id=":B3_1_0" index="0" speed="13.89" length="27.20" shape="192.00,613.60 192.00,586.40"/>
        <lane id=":B3_1_1" index="1" speed="13.89" length="27.20" shape="195.20,613.60 195.20,586.40"/>
        <lane id=":B3_1_2" index="2" speed="13.89" length="27.20" shape="198.40,613.60 198.40,586.40"/>
    </edge>
    <edge id=":B3_4" function="internal">
        <lane id=":B3_4_0" index="0" speed="10.36" length="7.98" shape="198.40,613.60 199.35,606.95 200.00,605.87"/>
    </edge>
    <edge id=":B3_20" function="internal">
        <lane id=":B3_20_0" index="0" speed="10.36" length="16.53" shape="200.00,605.87 202.20,602.20 206.95,599.35 213.60,598.40"/>
    </edge>
    <edge id=":B3_5" function="internal">
        <lane id=":B3_5_0" index="0" speed="6.51" length="9.03" shape="213.60,608.00 211.15,608.35 209.40,609.40 208.35,611.15 208.00,613.60"/>
    </edge>
    <edge id=":B3_6" function="internal">
        <lane id=":B3_6_0" index="0" speed="13.89" length="27.20" shape="213.60,608.00 186.40,608.00"/>
        <lane id=":B3_6_1" index="1" speed="13.89" length="27.20" shape="213.60,604.80 186.40,604.80"/>
        <lane id=":B3_6_2" index="2" speed="13.89" length="27.20" shape="213.60,601.60 186.40,601.60"/>
    </edge>
    <edge id=":B3_9" function="internal">
        <lane id=":B3_9_0" index="0" speed="10.36" length="7.98" shape="213.60,601.60 206.95,600.65 205.87,600.00"/>
    </edge>
    <edge id=":B3_21" function="internal">
        <lane id=":B3_21_0" index="0" speed="10.36" length="16.53" shape="205.87,600.00 202.20,597.80 199.35,593.05 198.40,586.40"/>
    </edge>
    <edge id=":B3_10" function="internal">
        <lane id=":B3_10_0" index="0" speed="6.51" length="9.03" shape="208.00,586.40 208.35,588.85 209.40,590.60 211.15,591.65 213.60,592.00"/>
    </edge>
    <edge id=":B3_11" function="internal">
        <lane id=":B3_11_0" index="0" speed="13.89" length="27.20" shape="208.00,586.40 208.00,613.60"/>
        <lane id=":B3_11_1" index="1" speed="13.89" length="27.20" shape="204.80,586.40 204.80,613.60"/>
        <lane id=":B3_11_2" index="2" speed="13.89" length="27.20" shape="201.60,586.40 201.60,613.60"/>
    </edge>
    <edge id=":B3_14" function="internal">
        <lane id=":B3_14_0" index="0" speed="10.36" length="7.98" shape="201.60,586.40 200.65,593.05 200.00,594.13"/>
    </edge>
    <edge id=":B3_22" function="internal">
        <lane id=":B3_22_0" index="0" speed="10.36" length="16.53" shape="200.00,594.13 197.80,597.80 193.05,600.65 186.40,601.60"/>
    </edge>
    <edge id=":B3_15" function="internal">
        <lane id=":B3_15_0" index="0" speed="6.51" length="9.03" shape="186.40,592.00 188.85,591.65 190.60,590.60 191.65,588.85 192.00,586.40"/>
    </edge>
    <edge id=":B3_16" function="internal">
        <lane id=":B3_16_0" index="0" speed="13.89" length="27.20" shape="186.40,592.00 213.60,592.00"/>
        <lane id=":B3_16_1" index="1" speed="13.89" length="27.20" shape="186.40,595.20 213.60,595.20"/>
        <lane id=":B3_16_2" index="2" speed="13.89" length="27.20" shape="186.40,598.40 213.60,598.40"/>
    </edge>
    <edge id=":B3_19" function="internal">
        <lane id=":B3_19_0" index="0" speed="10.36" length="7.98" shape="186.40,598.40 193.05,599.35 194.13,600.00"/>
    </edge>
    <edge id=":B3_23" function="internal">
        <lane id=":B3_23_0" index="0" speed="10.36" length="16.53" shape="194.13,600.00 197.80,602.20 200.65,606.95 201.60,613.60"/>
    </edge>
    <edge id=":B4_0" function="internal">
        <lane id=":B4_0_0" index="0" speed="13.89" length="27.20" shape="213.60,808.00 186.40,808.00"/>
        <lane id=":B4_0_1" index="1" speed="13.89" length="27.20" shape="213.60,804.80 186.40,804.80"/>
        <lane id=":B4_0_2" index="2" speed="13.89" length="27.20" shape="213.60,801.60 186.40,801.60"/>
    </edge>
    <edge id=":B4_3" function="internal">
        <lane id=":B4_3_0" index="0" speed="11.39" length="11.17" shape="213.60,801.60 204.15,800.65 202.61,800.00"/>
        <lane id=":B4_3_1" index="1" speed="10.88" length="9.57" shape="213.60,801.60 205.55,800.65 204.24,800.00"/>
        <lane id=":B4_3_2" index="2" speed="10.36" length="7.98" shape="213.60,801.60 206.95,800.65 205.87,800.00"/>
    </edge>
    <edge id=":B4_13" function="internal">
        <lane id=":B4_13_0" index="0" speed="11.39" length="18.68" shape="202.61,800.00 197.40,797.80 193.35,793.05 192.00,786.40"/>
    </edge>
    <edge id=":B4_14" function="internal">
        <lane id=":B4_14_0" index="0" speed="10.88" length="17.57" shape="204.24,800.00 199.80,797.80 196.35,793.05 195.20,786.40"/>
    </edge>
    <edge id=":B4_15" function="internal">
        <lane id=":B4_15_0" index="0" speed="10.36" length="16.53" shape="205.87,800.00 202.20,797.80 199.35,793.05 198.40,786.40"/>
    </edge>
    <edge id=":B4_6" function="internal">
        <lane id=":B4_6_0" index="0" speed="6.51" length="9.03" shape="208.00,786.40 208.35,788.85 209.40,790.60 211.15,791.65 213.60,792.00"/>
    </edge>
    <edge id=":B4_7" function="internal">
        <lane id=":B4_7_0" index="0" speed="11.36" length="29.67" shape="204.80,786.40 203.65,794.45 200.20,800.20 194.45,803.65 186.40,804.80"/>
        <lane id=":B4_7_1" index="1" speed="10.36" length="24.51" shape="201.60,786.40 200.65,793.05 197.80,797.80 193.05,800.65 186.40,801.60"/>
    </edge>
    <edge id=":B4_9" function="internal">
        <lane id=":B4_9_0" index="0" speed="6.51" length="9.03" shape="186.40,792.00 188.85,791.65 190.60,790.60 191.65,788.85 192.00,786.40"/>
    </edge>
    <edge id=":B4_10" function="internal">
        <lane id=":B4_10_0" index="0" speed="13.89" length="27.20" shape="186.40,792.00 213.60,792.00"/>
        <lane id=":B4_10_1" index="1" speed="13.89" length="27.20" shape="186.40,795.20 213.60,795.20"/>
        <lane id=":B4_10_2" index="2" speed="13.89" length="27.20" shape="186.40,798.40 213.60,798.40"/>
    </edge>
    <edge id=":C0_0" function="internal">
        <lane id=":C0_0_0" index="0" speed="6.51" length="9.03" shape="392.00,13.60 391.65,11.15 390.60,9.40 388.85,8.35 386.40,8.00"/>
    </edge>
    <edge id=":C0_1" function="internal">
        <lane id=":C0_1_0" index="0" speed="11.36" length="29.67" shape="395.20,13.60 396.35,5.55 399.80,-0.20 405.55,-3.65 413.60,-4.80"/>
        <lane id=":C0_1_1" index="1" speed="10.36" length="24.51" shape="398.40,13.60 399.35,6.95 402.20,2.20 406.95,-0.65 413.60,-1.60"/>
    </edge>
    <edge id=":C0_3" function="internal">
        <lane id=":C0_3_0" index="0" speed="6.51" length="9.03" shape="413.60,8.00 411.15,8.35 409.40,9.40 408.35,11.15 408.00,13.60"/>
    </edge>
    <edge id=":C0_4" function="internal">
        <lane id=":C0_4_0" index="0" speed="13.89" length="27.20" shape="413.60,8.00 386.40,8.00"/>
        <lane id=":C0_4_1" index="1" speed="13.89" length="27.20" shape="413.60,4.80 386.40,4.80"/>
        <lane id=":C0_4_2" index="2" speed="13.89" length="27.20" shape="413.60,1.60 386.40,1.60"/>
    </edge>
    <edge id=":C0_7" function="internal">
        <lane id=":C0_7_0" index="0" speed="13.89" length="27.20" shape="386.40,-8.00 413.60,-8.00"/>
        <lane id=":C0_7_1" index="1" speed="13.89" length="27.20" shape="386.40,-4.80 413.60,-4.80"/>
        <lane id=":C0_7_2" index="2" speed="13.89" length="27.20" shape="386.40,-1.60 413.60,-1.60"/>
    </edge>
    <edge id=":C0_10" function="internal">
        <lane id=":C0_10_0" index="0" speed="11.39" length="11.17" shape="386.40,-1.60 395.85,-0.65 397.39,-0.00"/>
        <lane id=":C0_10_1" index="1" speed="10.88" length="9.57" shape="386.40,-1.60 394.45,-0.65 395.76,0.00"/>
        <lane id=":C0_10_2" index="2" speed="10.36" length="7.98" shape="386.40,-1.60 393.05,-0.65 394.13,0.00"/>
    </edge>
    <edge id=":C0_13" function="internal">
        <lane id=":C0_13_0" index="0" speed="11.39" length="18.68" shape="397.39,-0.00 402.60,2.20 406.65,6.95 408.00,13.60"/>
    </edge>
    <edge id=":C0_14" function="internal">
        <lane id=":C0_14_0" index="0" speed="10.88" length="17.57" shape="395.76,0.00 400.20,2.20 403.65,6.95 404.80,13.60"/>
    </edge>
    <edge id=":C0_15" function="internal">
        <lane id=":C0_15_0" index="0" speed="10.36" length="16.53" shape="394.13,0.00 397.80,2.20 400.65,6.95 401.60,13.60"/>
    </edge>
    <edge id=":C1_0" function="internal">
        <lane id=":C1_0_0" index="0" speed="6.51" length="9.03" shape="392.00,213.60 391.65,211.15 390.60,209.40 388.85,208.35 386.40,208.00"/>
    </edge>
    <edge id=":C1_1" function="internal">
        <lane id=":C1_1_0" index="0" speed="13.89" length="27.20" shape="392.00,213.60 392.00,186.40"/>
        <lane id=":C1_1_1" index="1" speed="13.89" length="27.20" shape="395.20,213.60 395.20,186.40"/>
        <lane id=":C1_1_2" index="2" speed="13.89" length="27.20" shape="398.40,213.60 398.40,186.40"/>
    </edge>
    <edge id=":C1_4" function="internal">
        <lane id=":C1_4_0" index="0" speed="10.36" length="7.98" shape="398.40,213.60 399.35,206.95 400.00,205.87"/>
    </edge>
    <edge id=":C1_20" function="internal">
        <lane id=":C1_20_0" index="0" speed="10.36" length="16.53" shape="400.00,205.87 402.20,202.20 406.95,199.35 413.60,198.40"/>
    </edge>
    <edge id=":C1_5" function="internal">
        <lane id=":C1_5_0" index="0" speed="6.51" length="9.03" shape="413.60,208.00 411.15,208.35 409.40,209.40 408.35,211.15 408.00,213.60"/>
    </edge>
    <edge id=":C1_6" function="internal">
        <lane id=":C1_6_0" index="0" speed="13.89" length="27.20" shape="413.60,208.00 386.40,208.00"/>