<?xml version="1.0" encoding="UTF-8"?>

<!-- generated on 2022-04-16 11:27:56 by Eclipse SUMO netedit Version 1.9.2
<configuration xmlns:xsi="http://www.w3.org/2001/XMLSchema-instance" xsi:noNamespaceSchemaLocation="http://sumo.dlr.de/xsd/netconvertConfiguration.xsd">

    <input>
        <sumo-net-file value="E:\Program\python\projects\RL_signal\sumo_files\network.net.xml"/>
    </input>

    <output>
        <output-file value="E:\Program\python\projects\RL_signal\sumo_files\network.net.xml"/>
    </output>

    <processing>
        <geometry.min-radius.fix.railways value="false"/>
        <geometry.max-grade.fix value="false"/>
        <offset.disable-normalization value="true"/>
        <lefthand value="false"/>
    </processing>

    <junctions>
        <no-turnarounds value="true"/>
        <junctions.corner-detail value="5"/>
        <junctions.limit-turn-speed value="5.5"/>
        <rectangular-lane-cut value="false"/>
    </junctions>

    <pedestrian>
        <walkingareas value="false"/>
    </pedestrian>

    <report>
        <aggregate-warnings value="5"/>
    </report>

</configuration>
-->

<net version="1.9" junctionCornerDetail="5" limitTurnSpeed="5.50" xmlns:xsi="http://www.w3.org/2001/XMLSchema-instance" xsi:noNamespaceSchemaLocation="http://sumo.dlr.de/xsd/net_file.xsd">

    <location netOffset="0.00,0.00" convBoundary="0.00,0.00,900.00,900.00" origBoundary="-10000000000.00,-10000000000.00,10000000000.00,10000000000.00" projParameter="!"/>

    <edge id=":e3_0" function="internal">
        <lane id=":e3_0_0" index="0" speed="6.51" length="9.03" shape="292.00,313.60 291.65,311.15 290.60,309.40 288.85,308.35 286.40,308.00"/>
    </edge>
    <edge id=":e3_1" function="internal">
        <lane id=":e3_1_0" index="0" speed="13.89" length="27.20" shape="292.00,313.60 292.00,286.40"/>
        <lane id=":e3_1_1" index="1" speed="13.89" length="27.20" shape="295.20,313.60 295.20,286.40"/>
    </edge>
    <edge id=":e3_3" function="internal">
        <lane id=":e3_3_0" index="0" speed="10.27" length="13.31" shape="298.40,313.60 299.31,306.95 302.05,302.20 303.00,301.61"/>
    </edge>
    <edge id=":e3_16" function="internal">
        <lane id=":e3_16_0" index="0" speed="10.27" length="10.72" shape="303.00,301.61 306.61,299.35 313.00,298.40"/>
    </edge>
    <edge id=":e3_4" function="internal">
        <lane id=":e3_4_0" index="0" speed="6.59" length="9.36" width="3.00" shape="313.00,307.50 310.59,307.88 308.88,309.02 307.84,310.93 307.50,313.60"/>
    </edge>
    <edge id=":e3_5" function="internal">
        <lane id=":e3_5_0" index="0" speed="13.89" length="26.60" shape="313.00,307.50 286.40,308.00"/>
        <lane id=":e3_5_1" index="1" speed="13.89" length="26.60" shape="313.00,304.50 286.40,304.80"/>
    </edge>
    <edge id=":e3_7" function="internal">
        <lane id=":e3_7_0" index="0" speed="10.24" length="12.75" shape="313.00,301.50 306.61,300.56 302.05,297.73 301.59,296.93"/>
    </edge>
    <edge id=":e3_17" function="internal">
        <lane id=":e3_17_0" index="0" speed="10.24" length="11.20" shape="301.59,296.93 299.31,293.01 298.40,286.40"/>
    </edge>
    <edge id=":e3_8" function="internal">
        <lane id=":e3_8_0" index="0" speed="6.46" length="8.95" shape="307.50,286.40 307.84,288.85 308.88,290.60 310.59,291.65 313.00,292.00"/>
    </edge>
    <edge id=":e3_9" function="internal">
        <lane id=":e3_9_0" index="0" speed="13.89" length="27.20" width="3.00" shape="307.50,286.40 307.50,313.60"/>
        <lane id=":e3_9_1" index="1" speed="13.89" length="27.20" width="3.00" shape="304.50,286.40 304.50,313.60"/>
    </edge>
    <edge id=":e3_11" function="internal">
        <lane id=":e3_11_0" index="0" speed="10.33" length="13.33" shape="301.50,286.40 300.56,293.05 297.73,297.80 296.80,298.36"/>
    </edge>
    <edge id=":e3_18" function="internal">
        <lane id=":e3_18_0" index="0" speed="10.33" length="11.11" shape="296.80,298.36 293.01,300.65 286.40,301.60"/>
    </edge>
    <edge id=":e3_12" function="internal">
        <lane id=":e3_12_0" index="0" speed="6.62" length="9.44" shape="286.40,292.50 288.85,292.12 290.60,290.98 291.65,289.07 292.00,286.40"/>
    </edge>
    <edge id=":e3_13" function="internal">
        <lane id=":e3_13_0" index="0" speed="13.89" length="26.60" shape="286.40,292.50 313.00,292.00"/>
        <lane id=":e3_13_1" index="1" speed="13.89" length="26.60" shape="286.40,295.50 313.00,295.20"/>
    </edge>
    <edge id=":e3_15" function="internal">
        <lane id=":e3_15_0" index="0" speed="10.32" length="13.10" width="3.00" shape="286.40,298.50 293.01,299.44 297.73,302.27 298.20,303.07"/>
    </edge>
    <edge id=":e3_19" function="internal">
        <lane id=":e3_19_0" index="0" speed="10.32" length="11.25" width="3.00" shape="298.20,303.07 300.56,306.99 301.50,313.60"/>
    </edge>
    <edge id=":e4_0" function="internal">
        <lane id=":e4_0_0" index="0" speed="6.62" length="9.44" shape="292.50,613.60 292.12,611.15 290.98,609.40 289.07,608.35 286.40,608.00"/>
    </edge>
    <edge id=":e4_1" function="internal">
        <lane id=":e4_1_0" index="0" speed="13.89" length="27.20" shape="292.50,613.60 292.00,586.40"/>
        <lane id=":e4_1_1" index="1" speed="13.89" length="27.20" shape="295.50,613.60 295.20,586.40"/>
    </edge>
    <edge id=":e4_3" function="internal">
        <lane id=":e4_3_0" index="0" speed="10.33" length="13.17" shape="298.50,613.60 299.44,606.95 302.27,602.20 303.07,601.72"/>
    </edge>
    <edge id=":e4_16" function="internal">
        <lane id=":e4_16_0" index="0" speed="10.33" length="11.26" shape="303.07,601.72 306.99,599.35 313.60,598.40"/>
    </edge>
    <edge id=":e4_4" function="internal">
        <lane id=":e4_4_0" index="0" speed="6.51" length="9.03" shape="313.60,608.00 311.15,608.35 309.40,609.40 308.35,611.15 308.00,613.60"/>
    </edge>
    <edge id=":e4_5" function="internal">
        <lane id=":e4_5_0" index="0" speed="13.89" length="27.20" shape="313.60,608.00 286.40,608.00"/>
        <lane id=":e4_5_1" index="1" speed="13.89" length="27.20" shape="313.60,604.80 286.40,604.80"/>
    </edge>
    <edge id=":e4_7" function="internal">
        <lane id=":e4_7_0" index="0" speed="10.36" length="13.27" shape="313.60,601.60 306.95,600.65 302.20,597.80 301.68,596.93"/>
    </edge>
    <edge id=":e4_17" function="internal">
        <lane id=":e4_17_0" index="0" speed="10.36" length="11.24" shape="301.68,596.93 299.35,593.05 298.40,586.40"/>
    </edge>
    <edge id=":e4_8" function="internal">
        <lane id=":e4_8_0" index="0" speed="6.62" length="9.44" shape="307.50,586.40 307.88,588.85 309.02,590.60 310.93,591.65 313.60,592.00"/>
    </edge>
    <edge id=":e4_9" function="internal">
        <lane id=":e4_9_0" index="0" speed="13.89" length="27.20" shape="307.50,586.40 308.00,613.60"/>
        <lane id=":e4_9_1" index="1" speed="13.89" length="27.20" shape="304.50,586.40 304.80,613.60"/>
    </edge>
    <edge id=":e4_11" function="internal">
        <lane id=":e4_11_0" index="0" speed="10.33" length="13.17" shape="301.50,586.40 300.56,593.05 297.73,597.80 296.93,598.28"/>
    </edge>
    <edge id=":e4_18" function="internal">
        <lane id=":e4_18_0" index="0" speed="10.33" length="11.26" shape="296.93,598.28 293.01,600.65 286.40,601.60"/>
    </edge>
    <edge id=":e4_12" function="internal">
        <lane id=":e4_12_0" index="0" speed="6.62" length="9.44" shape="286.40,592.50 288.85,592.12 290.60,590.98 291.65,589.07 292.00,586.40"/>
    </edge>
    <edge id=":e4_13" function="internal">
        <lane id=":e4_13_0" index="0" speed="13.89" length="27.20" shape="286.40,592.50 313.60,592.00"/>
        <lane id=":e4_13_1" index="1" speed="13.89" length="27.20" shape="286.40,595.50 313.60,595.20"/>
    </edge>
    <edge id=":e4_15" function="internal">
        <lane id=":e4_15_0" index="0" speed="10.33" length="13.33" shape="286.40,598.50 293.05,599.44 297.80,602.27 298.36,603.20"/>
    </edge>
    <edge id=":e4_19" function="internal">
        <lane id=":e4_19_0" index="0" speed="10.33" length="11.11" shape="298.36,603.20 300.65,606.99 301.60,613.60"/>
    </edge>
    <edge id=":e7_0" function="internal">
        <lane id=":e7_0_0" index="0" speed="6.48" length="8.95" width="3.00" shape="592.00,313.00 591.65,310.59 590.60,308.88 588.85,307.84 586.40,307.50"/>
    </edge>
    <edge id=":e7_1" function="internal">
        <lane id=":e7_1_0" index="0" speed="13.89" length="26.60" shape="592.00,313.00 592.00,286.40"/>
        <lane id=":e7_1_1" index="1" speed="13.89" length="26.60" shape="595.20,313.00 595.20,286.40"/>
    </edge>
    <edge id=":e7_3" function="internal">
        <lane id=":e7_3_0" index="0" speed="10.17" length="12.88" shape="598.40,313.00 599.31,306.61 602.05,302.05 603.00,301.48"/>
    </edge>
    <edge id=":e7_16" function="internal">
        <lane id=":e7_16_0" index="0" speed="10.17" length="10.67" shape="603.00,301.48 606.61,299.31 613.00,298.40"/>
    </edge>
    <edge id=":e7_4" function="internal">
        <lane id=":e7_4_0" index="0" speed="6.43" length="8.87" width="3.00" shape="613.00,307.50 610.59,307.84 608.88,308.88 607.84,310.59 607.50,313.00"/>
    </edge>
    <edge id=":e7_5" function="internal">
        <lane id=":e7_5_0" index="0" speed="13.89" length="26.60" width="3.00" shape="613.00,307.50 586.40,307.50"/>
        <lane id=":e7_5_1" index="1" speed="13.89" length="26.60" width="3.00" shape="613.00,304.50 586.40,304.50"/>
    </edge>
    <edge id=":e7_7" function="internal">
        <lane id=":e7_7_0" index="0" speed="10.24" length="12.90" shape="613.00,301.50 606.61,300.56 602.05,297.73 601.51,296.80"/>
    </edge>
    <edge id=":e7_17" function="internal">
        <lane id=":e7_17_0" index="0" speed="10.24" length="11.05" shape="601.51,296.80 599.31,293.01 598.40,286.40"/>
    </edge>
    <edge id=":e7_8" function="internal">
        <lane id=":e7_8_0" index="0" speed="6.46" length="8.95" shape="607.50,286.40 607.84,288.85 608.88,290.60 610.59,291.65 613.00,292.00"/>
    </edge>
    <edge id=":e7_9" function="internal">
        <lane id=":e7_9_0" index="0" speed="13.89" length="26.60" width="3.00" shape="607.50,286.40 607.50,313.00"/>
        <lane id=":e7_9_1" index="1" speed="13.89" length="26.60" width="3.00" shape="604.50,286.40 604.50,313.00"/>
    </edge>
    <edge id=":e7_11" function="internal">
        <lane id=":e7_11_0" index="0" speed="10.32" length="13.26" width="3.00" shape="601.50,286.40 600.56,293.01 597.73,297.73 596.80,298.28"/>
    </edge>
    <edge id=":e7_18" function="internal">
        <lane id=":e7_18_0" index="0" speed="10.32" length="11.10" width="3.00" shape="596.80,298.28 593.01,300.56 586.40,301.50"/>
    </edge>
    <edge id=":e7_12" function="internal">
        <lane id=":e7_12_0" index="0" speed="6.51" length="9.03" shape="586.40,292.00 588.85,291.65 590.60,290.60 591.65,288.85 592.00,286.40"/>
    </edge>
    <edge id=":e7_13" function="internal">
        <lane id=":e7_13_0" index="0" speed="13.89" length="26.60" shape="586.40,292.00 613.00,292.00"/>
        <lane id=":e7_13_1" index="1" speed="13.89" length="26.60" shape="586.40,295.20 613.00,295.20"/>
    </edge>
    <edge id=":e7_15" function="internal">
        <lane id=":e7_15_0" index="0" speed="10.25" length="13.24" width="3.00" shape="586.40,298.40 593.01,299.31 597.73,302.05 598.31,303.00"/>
    </edge>
    <edge id=":e7_19" function="internal">
        <lane id=":e7_19_0" index="0" speed="10.25" length="10.71" width="3.00" shape="598.31,303.00 600.56,306.61 601.50,313.00"/>
    </edge>
    <edge id=":e8_0" function="internal">
        <lane id=":e8_0_0" index="0" speed="6.62" length="9.44" shape="592.50,613.60 592.12,611.15 590.98,609.40 589.07,608.35 586.40,608.00"/>
    </edge>
    <edge id=":e8_1" function="internal">
        <lane id=":e8_1_0" index="0" speed="13.89" length="27.20" shape="592.50,613.60 592.00,586.40"/>
        <lane id=":e8_1_1" index="1" speed="13.89" length="27.20" shape="595.50,613.60 595.20,586.40"/>
    </edge>
    <edge id=":e8_3" function="internal">
        <lane id=":e8_3_0" index="0" speed="10.33" length="13.17" shape="598.50,613.60 599.44,606.95 602.27,602.20 603.07,601.72"/>
    </edge>
    <edge id=":e8_16" function="internal">
        <lane id=":e8_16_0" index="0" speed="10.33" length="11.26" shape="603.07,601.72 606.99,599.35 613.60,598.40"/>
    </edge>
    <edge id=":e8_4" function="internal">
        <lane id=":e8_4_0" index="0" speed="6.62" length="9.44" shape="613.60,607.50 611.15,607.88 609.40,609.02 608.35,610.93 608.00,613.60"/>
    </edge>
    <edge id=":e8_5" function="internal">
        <lane id=":e8_5_0" index="0" speed="13.89" length="27.20" shape="613.60,607.50 586.40,608.00"/>
        <lane id=":e8_5_1" index="1" speed="13.89" length="27.20" shape="613.60,604.50 586.40,604.80"/>
    </edge>
    <edge id=":e8_7" function="internal">
        <lane id=":e8_7_0" index="0" speed="10.33" length="13.33" shape="613.60,601.50 606.95,600.56 602.20,597.73 601.64,596.80"/>
    </edge>
    <edge id=":e8_17" function="internal">
        <lane id=":e8_17_0" index="0" speed="10.33" length="11.11" shape="601.64,596.80 599.35,593.01 598.40,586.40"/>
    </edge>
    <edge id=":e8_8" function="internal">
        <lane id=":e8_8_0" index="0" speed="6.62" length="9.44" shape="607.50,586.40 607.88,588.85 609.02,590.60 610.93,591.65 613.60,592.00"/>
    </edge>
    <edge id=":e8_9" function="internal">
        <lane id=":e8_9_0" index="0" speed="13.89" length="27.20" shape="607.50,586.40 608.00,613.60"/>
        <lane id=":e8_9_1" index="1" speed="13.89" length="27.20" shape="604.50,586.40 604.80,613.60"/>
    </edge>
    <edge id=":e8_11" function="internal">
        <lane id=":e8_11_0" index="0" speed="10.33" length="13.17" shape="601.50,586.40 600.56,593.05 597.73,597.80 596.93,598.28"/>
    </edge>
    <edge id=":e8_18" function="internal">
        <lane id=":e8_18_0" index="0" speed="10.33" length="11.26" shape="596.93,598.28 593.01,600.65 586.40,601.60"/>
    </edge>
    <edge id=":e8_12" function="internal">
        <lane id=":e8_12_0" index="0" speed="6.51" length="9.03" shape="586.40,592.00 588.85,591.65 590.60,590.60 591.65,588.85 592.00,586.40"/>
    </edge>
    <edge id=":e8_13" function="internal">
        <lane id=":e8_13_0" index="0" speed="13.89" length="27.20" shape="586.40,592.00 613.60,592.00"/>
        <lane id=":e8_13_1" index="1" speed="13.89" length="27.20" shape="586.40,595.20 613.60,595.20"/>
    </edge>
    <edge id=":e8_15" function="internal">
        <lane id=":e8_15_0" index="0" speed="10.36" length="13.27" shape="586.40,598.40 593.05,599.35 597.80,602.20 598.32,603.07"/>
    </edge>
    <edge id=":e8_19" function="internal">
        <lane id=":e8_19_0" index="0" speed="10.36" length="11.24" shape="598.32,603.07 600.65,606.95 601.60,613.60"/>
    </edge>

    <edge id="-lane1" from="e4" to="e1" priority="-1">
        <lane id="-lane1_0" index="0" speed="13.89" length="286.40" shape="286.40,608.00 0.00,608.00"/>
        <lane id="-lane1_1" index="1" speed="13.89" length="286.40" shape="286.40,604.80 0.00,604.80"/>
        <lane id="-lane1_2" index="2" speed="13.89" length="286.40" shape="286.40,601.60 0.00,601.60"/>
    </edge>
    <edge id="-lane10" from="e8" to="e7" priority="-1" length="300.00">
        <lane id="-lane10_0" index="0" speed="13.89" length="300.00" shape="592.00,586.40 592.00,313.00"/>
        <lane id="-lane10_1" index="1" speed="13.89" length="300.00" shape="595.20,586.40 595.20,313.00"/>
        <lane id="-lane10_2" index="2" speed="13.89" length="300.00" shape="598.40,586.40 598.40,313.00"/>
    </edge>
    <edge id="-lane11" from="e4" to="e5" priority="-1" length="300.00">
        <lane id="-lane11_0" index="0" speed="13.89" length="300.00" shape="308.00,613.60 308.00,900.00"/>
        <lane id="-lane11_1" index="1" speed="13.89" length="300.00" shape="304.80,613.60 304.80,900.00"/>
        <lane id="-lane11_2" index="2" speed="13.89" length="300.00" shape="301.60,613.60 301.60,900.00"/>
    </edge>
    <edge id="-lane12" from="e9" to="e8" priority="-1" length="300.00">
        <lane id="-lane12_0" index="0" speed="13.89" length="300.00" width="3.00" shape="592.50,900.00 592.50,613.60"/>
        <lane id="-lane12_1" index="1" speed="13.89" length="300.00" width="3.00" shape="595.50,900.00 595.50,613.60"/>
        <lane id="-lane12_2" index="2" speed="13.89" length="300.00" width="3.00" shape="598.50,900.00 598.50,613.60"/>
    </edge>
    <edge id="-lane2" from="e3" to="e0" priority="-1">
        <lane id="-lane2_0" index="0" speed="13.89" length="286.40" shape="286.40,308.00 0.00,308.00"/>
        <lane id="-lane2_1" index="1" speed="13.89" length="286.40" shape="286.40,304.80 0.00,304.80"/>
        <lane id="-lane2_2" index="2" speed="13.89" length="286.40" shape="286.40,301.60 0.00,301.60"/>
    </edge>
    <edge id="-lane3" from="e8" to="e4" priority="-1" length="300.00">
        <lane id="-lane3_0" index="0" speed="13.89" length="300.00" shape="586.40,608.00 313.60,608.00"/>
        <lane id="-lane3_1" index="1" speed="13.89" length="300.00" shape="586.40,604.80 313.60,604.80"/>
        <lane id="-lane3_2" index="2" speed="13.89" length="300.00" shape="586.40,601.60 313.60,601.60"/>
    </edge>
    <edge id="-lane4" from="e7" to="e3" priority="-1" length="300.00">
        <lane id="-lane4_0" index="0" speed="13.89" length="300.00" width="3.00" shape="586.40,307.50 313.00,307.50"/>
        <lane id="-lane4_1" index="1" speed="13.89" length="300.00" width="3.00" shape="586.40,304.50 313.00,304.50"/>
        <lane id="-lane4_2" index="2" speed="13.89" length="300.00" width="3.00" shape="586.40,301.50 313.00,301.50"/>
    </edge>
    <edge id="-lane5" from="e11" to="e8" priority="-1" length="300.00">
        <lane id="-lane5_0" index="0" speed="13.89" length="300.00" width="3.00" shape="900.00,607.50 613.60,607.50"/>
        <lane id="-lane5_1" index="1" speed="13.89" length="300.00" width="3.00" shape="900.00,604.50 613.60,604.50"/>
        <lane id="-lane5_2" index="2" speed="13.89" length="300.00" width="3.00" shape="900.00,601.50 613.60,601.50"/>
    </edge>
    <edge id="-lane6" from="e10" to="e7" priority="-1" length="300.00">
        <lane id="-lane6_0" index="0" speed="13.89" length="300.00" width="3.00" shape="900.00,307.50 613.00,307.50"/>
        <lane id="-lane6_1" index="1" speed="13.89" length="300.00" width="3.00" shape="900.00,304.50 613.00,304.50"/>
        <lane id="-lane6_2" index="2" speed="13.89" length="300.00" width="3.00" shape="900.00,301.50 613.00,301.50"/>
    </edge>
    <edge id="-lane7" from="e2" to="e3" priority="-1" length="300.00">
        <lane id="-lane7_0" index="0" speed="13.89" length="300.00" width="3.00" shape="307.50,0.00 307.50,286.40"/>
        <lane id="-lane7_1" index="1" speed="13.89" length="300.00" width="3.00" shape="304.50,0.00 304.50,286.40"/>
        <lane id="-lane7_2" index="2" speed="13.89" length="300.00" width="3.00" shape="301.50,0.00 301.50,286.40"/>
    </edge>
    <edge id="-lane8" from="e7" to="e6" priority="-1">
        <lane id="-lane8_0" index="0" speed="13.89" length="286.40" shape="592.00,286.40 592.00,0.00"/>
        <lane id="-lane8_1" index="1" speed="13.89" length="286.40" shape="595.20,286.40 595.20,0.00"/>
        <lane id="-lane8_2" index="2" speed="13.89" length="286.40" shape="598.40,286.40 598.40,0.00"/>
    </edge>
    <edge id="-lane9" from="e3" to="e4" priority="-1" length="300.00">
        <lane id="-lane9_0" index="0" speed="13.89" length="300.00" width="3.00" shape="307.50,313.60 307.50,586.40"/>
        <lane id="-lane9_1" index="1" speed="13.89" length="300.00" width="3.00" shape="304.50,313.60 304.50,586.40"/>
        <lane id="-lane9_2" index="2" speed="13.89" length="300.00" width="3.00" shape="301.50,313.60 301.50,586.40"/>
    </edge>
    <edge id="lane1" from="e1" to="e4" priority="-1" length="300.00">
        <lane id="lane1_0" index="0" speed="13.89" length="300.00" width="3.00" shape="0.00,592.50 286.40,592.50"/>
        <lane id="lane1_1" index="1" speed="13.89" length="300.00" width="3.00" shape="0.00,595.50 286.40,595.50"/>
        <lane id="lane1_2" index="2" speed="13.89" length="300.00" width="3.00" shape="0.00,598.50 286.40,598.50"/>
    </edge>
    <edge id="lane10" from="e7" to="e8" priority="-1" length="300.00">
        <lane id="lane10_0" index="0" speed="13.89" length="300.00" width="3.00" shape="607.50,313.00 607.50,586.40"/>
        <lane id="lane10_1" index="1" speed="13.89" length="300.00" width="3.00" shape="604.50,313.00 604.50,586.40"/>
        <lane id="lane10_2" index="2" speed="13.89" length="300.00" width="3.00" shape="601.50,313.00 601.50,586.40"/>
    </edge>
    <edge id="lane11" from="e5" to="e4" priority="-1" length="300.00">
        <lane id="lane11_0" index="0" speed="13.89" length="300.00" width="3.00" shape="292.50,900.00 292.50,613.60"/>
        <lane id="lane11_1" index="1" speed="13.89" length="300.00" width="3.00" shape="295.50,900.00 295.50,613.60"/>
        <lane id="lane11_2" index="2" speed="13.89" length="300.00" width="3.00" shape="298.50,900.00 298.50,613.60"/>
    </edge>
    <edge id="lane12" from="e8" to="e9" priority="-1">
        <lane id="lane12_0" index="0" speed="13.89" length="286.40" shape="608.00,613.60 608.00,900.00"/>
        <lane id="lane12_1" index="1" speed="13.89" length="286.40" shape="604.80,613.60 604.80,900.00"/>
        <lane id="lane12_2" index="2" speed="13.89" length="286.40" shape="601.60,613.60 601.60,900.00"/>
    </edge>
    <edge id="lane2" from="e0" to="e3" priority="-1" length="300.00">
        <lane id="lane2_0" index="0" speed="13.89" length="300.00" width="3.00" shape="0.00,292.50 286.40,292.50"/>
        <lane id="lane2_1" index="1" speed="13.89" length="300.00" width="3.00" shape="0.00,295.50 286.40,295.50"/>
        <lane id="lane2_2" index="2" speed="13.89" length="300.00" width="3.00" shape="0.00,298.50 286.40,298.50"/>
    </edge>
    <edge id="lane3" from="e4" to="e8" priority="-1" length="300.00">
        <lane id="lane3_0" index="0" speed="13.89" length="300.00" shape="313.60,592.00 586.40,592.00"/>
        <lane id="lane3_1" index="1" speed="13.89" length="300.00" shape="313.60,595.20 586.40,595.20"/>
        <lane id="lane3_2" index="2" speed="13.89" length="300.00" shape="313.60,598.40 586.40,598.40"/>
    </edge>
    <edge id="lane4" from="e3" to="e7" priority="-1" length="300.00">
        <lane id="lane4_0" index="0" speed="13.89" length="300.00" shape="313.00,292.00 586.40,292.00"/>
        <lane id="lane4_1" index="1" speed="13.89" length="300.00" shape="313.00,295.20 586.40,295.20"/>
        <lane id="lane4_2" index="2" speed="13.89" length="300.00" shape="313.00,298.40 586.40,298.40"/>
    </edge>
    <edge id="lane5" from="e8" to="e11" priority="-1">
        <lane id="lane5_0" index="0" speed="13.89" length="286.40" shape="613.60,592.00 900.00,592.00"/>
        <lane id="lane5_1" index="1" speed="13.89" length="286.40" shape="613.60,595.20 900.00,595.20"/>
        <lane id="lane5_2" index="2" speed="13.89" length="286.40" shape="613.60,598.40 900.00,598.40"/>
    </edge>
    <edge id="lane6" from="e7" to="e10" priority="-1">
        <lane id="lane6_0" index="0" speed="13.89" length="287.00" shape="613.00,292.00 900.00,292.00"/>
        <lane id="lane6_1" index="1" speed="13.89" length="287.00" shape="613.00,295.20 900.00,295.20"/>
        <lane id="lane6_2" index="2" speed="13.89" length="287.00" shape="613.00,298.40 900.00,298.40"/>
    </edge>
    <edge id="lane7" from="e3" to="e2" priority="-1">
        <lane id="lane7_0" index="0" speed="13.89" length="286.40" shape="292.00,286.40 292.00,0.00"/>
        <lane id="lane7_1" index="1" speed="13.89" length="286.40" shape="295.20,286.40 295.20,0.00"/>
        <lane id="lane7_2" index="2" speed="13.89" length="286.40" shape="298.40,286.40 298.40,0.00"/>
    </edge>
    <edge id="lane8" from="e6" to="e7" priority="-1" length="300.00">
        <lane id="lane8_0" index="0" speed="13.89" length="300.00" width="3.00" shape="607.50,0.00 607.50,286.40"/>
        <lane id="lane8_1" index="1" speed="13.89" length="300.00" width="3.00" shape="604.50,0.00 604.50,286.40"/>
        <lane id="lane8_2" index="2" speed="13.89" length="300.00" width="3.00" shape="601.50,0.00 601.50,286.40"/>
    </edge>
    <edge id="lane9" from="e4" to="e3" priority="-1" length="300.00">
        <lane id="lane9_0" index="0" speed="13.89" length="300.00" shape="292.00,586.40 292.00,313.60"/>
        <lane id="lane9_1" index="1" speed="13.89" length="300.00" shape="295.20,586.40 295.20,313.60"/>
        <lane id="lane9_2" index="2" speed="13.89" length="300.00" shape="298.40,586.40 298.40,313.60"/>
    </edge>

    <tlLogic id="e3" type="static" programID="0" offset="0">
        <phase duration="33" state="GGGgrrrrGGGgrrrr"/>
        <phase duration="3"  state="yyygrrrryyygrrrr"/>
        <phase duration="6"  state="rrrGrrrrrrrGrrrr"/>
        <phase duration="3"  state="rrryrrrrrrryrrrr"/>
        <phase duration="33" state="rrrrGGGgrrrrGGGg"/>
        <phase duration="3"  state="rrrryyygrrrryyyg"/>
        <phase duration="6"  state="rrrrrrrGrrrrrrrG"/>
        <phase duration="3"  state="rrrrrrryrrrrrrry"/>
    </tlLogic>
    <tlLogic id="e4" type="static" programID="0" offset="0">
        <phase duration="33" state="GGGgrrrrGGGgrrrr"/>
        <phase duration="3"  state="yyygrrrryyygrrrr"/>
        <phase duration="6"  state="rrrGrrrrrrrGrrrr"/>
        <phase duration="3"  state="rrryrrrrrrryrrrr"/>
        <phase duration="33" state="rrrrGGGgrrrrGGGg"/>
        <phase duration="3"  state="rrrryyygrrrryyyg"/>
        <phase duration="6"  state="rrrrrrrGrrrrrrrG"/>
        <phase duration="3"  state="rrrrrrryrrrrrrry"/>
    </tlLogic>
    <tlLogic id="e7" type="static" programID="0" offset="0">
        <phase duration="33" state="GGGgrrrrGGGgrrrr"/>
        <phase duration="3"  state="yyygrrrryyygrrrr"/>
        <phase duration="6"  state="rrrGrrrrrrrGrrrr"/>
        <phase duration="3"  state="rrryrrrrrrryrrrr"/>
        <phase duration="33" state="rrrrGGGgrrrrGGGg"/>
        <phase duration="3"  state="rrrryyygrrrryyyg"/>
        <phase duration="6"  state="rrrrrrrGrrrrrrrG"/>
        <phase duration="3"  state="rrrrrrryrrrrrrry"/>
    </tlLogic>
    <tlLogic id="e8" type="static" programID="0" offset="0">
        <phase duration="33" state="GGGgrrrrGGGgrrrr"/>
        <phase duration="3"  state="yyygrrrryyygrrrr"/>
        <phase duration="6"  state="rrrGrrrrrrrGrrrr"/>
        <phase duration="3"  state="rrryrrrrrrryrrrr"/>
        <phase duration="33" state="rrrrGGGgrrrrGGGg"/>
        <phase duration="3"  state="rrrryyygrrrryyyg"/>
        <phase duration="6"  state="rrrrrrrGrrrrrrrG"/>
        <phase duration="3"  state="rrrrrrryrrrrrrry"/>
    </tlLogic>

    <junction id="e0" type="dead_end" x="0.00" y="300.00" incLanes="-lane2_0 -lane2_1 -lane2_2" intLanes="" shape="0.00,300.00 0.00,309.60 0.00,300.00"/>
    <junction id="e1" type="dead_end" x="0.00" y="600.00" incLanes="-lane1_0 -lane1_1 -lane1_2" intLanes="" shape="0.00,600.00 0.00,609.60 0.00,600.00"/>
    <junction id="e10" type="dead_end" x="900.00" y="300.00" incLanes="lane6_0 lane6_1 lane6_2" intLanes="" shape="900.00,300.00 900.00,290.40 900.00,300.00"/>
    <junction id="e11" type="dead_end" x="900.00" y="600.00" incLanes="lane5_0 lane5_1 lane5_2" intLanes="" shape="900.00,600.00 900.00,590.40 900.00,600.00"/>
    <junction id="e2" type="dead_end" x="300.00" y="0.00" incLanes="lane7_0 lane7_1 lane7_2" intLanes="" shape="300.00,0.00 290.40,0.00 300.00,0.00"/>
    <junction id="e3" type="traffic_light" x="300.00" y="300.00" incLanes="lane9_0 lane9_1 lane9_2 -lane4_0 -lane4_1 -lane4_2 -lane7_0 -lane7_1 -lane7_2 lane2_0 lane2_1 lane2_2" intLanes=":e3_0_0 :e3_1_0 :e3_1_1 :e3_16_0 :e3_4_0 :e3_5_0 :e3_5_1 :e3_17_0 :e3_8_0 :e3_9_0 :e3_9_1 :e3_18_0 :e3_12_0 :e3_13_0 :e3_13_1 :e3_19_0" shape="290.40,313.60 309.00,313.60 309.44,311.04 310.00,310.15 310.78,309.51 311.78,309.13 313.00,309.00 313.00,290.40 310.78,289.96 310.00,289.40 309.44,288.62 309.11,287.62 309.00,286.40 290.40,286.40 289.96,288.96 289.40,289.85 288.62,290.49 287.62,290.87 286.40,291.00 286.40,309.60 288.62,310.04 289.40,310.60 289.96,311.38 290.29,312.38">
        <request index="0"  response="0000000000000000" foes="0000000001100000" cont="0"/>
        <request index="1"  response="1000000000000000" foes="1111100001100000" cont="0"/>
        <request index="2"  response="1000000000000000" foes="1111100001100000" cont="0"/>
        <request index="3"  response="1000011010000000" foes="1000011011100000" cont="1"/>
        <request index="4"  response="0000011000000000" foes="0000011000000000" cont="0"/>
        <request index="5"  response="0000011000001111" foes="1000011000001111" cont="0"/>
        <request index="6"  response="0000011000001111" foes="1000011000001111" cont="0"/>
        <request index="7"  response="0110111000001000" foes="0110111000001000" cont="1"/>
        <request index="8"  response="0000000000000000" foes="0110000000000000" cont="0"/>
        <request index="9"  response="0000000010000000" foes="0110000011111000" cont="0"/>
        <request index="10" response="0000000010000000" foes="0110000011111000" cont="0"/>
        <request index="11" response="1000000010000110" foes="1110000010000110" cont="1"/>
        <request index="12" response="0000000000000110" foes="0000000000000110" cont="0"/>
        <request index="13" response="0000111100000110" foes="0000111110000110" cont="0"/>
        <request index="14" response="0000111100000110" foes="0000111110000110" cont="0"/>
        <request index="15" response="0000100001101110" foes="0000100001101110" cont="1"/>
    </junction>