<configuration>
   <input>
       <net-file value="network.net.xml" />
       <route-files value="demand_dynamic.rou.xml" />
   </input>
   <time>
       <step-length value="1" />
   </time>
   <processing>
       <lateral-resolution value="1." />
   </processing>
</configuration>
