<?xml version="1.0" encoding="UTF-8"?><configuration xmlns:xsi="http://www.w3.org/2001/XMLSchema-instance" xsi:noNamespaceSchemaLocation="http://sumo.dlr.de/xsd/sumoConfiguration.xsd">
<input>
<net-file value="single.net.xml"/>
<route-files value="1groutes.xml" />
</input>
<report>
<verbose value="false"/>
<no-step-log value="true"/>
</report>
</configuration>
