<?xml version="1.0" encoding="UTF-8"?>

<!-- generated on 2025-04-21 15:36:22.666345 by randomTrips.py v1_22_0+0002-63e50f52594
<configuration>
    <net-file value=".\2gridnet.net.xml"/>
    <route-file value="2groutes.xml"/>
    <trip-attributes value="departSpeed=&quot;max&quot; departPos=&quot;random&quot;"/>
    <remove-loops value="True"/>
    <period value="4.0 1.5 4.0"/>
</configuration>
-->

<routes xmlns:xsi="http://www.w3.org/2001/XMLSchema-instance" xsi:noNamespaceSchemaLocation="http://sumo.dlr.de/xsd/routes_file.xsd">
    <trip id="0" depart="0.00" from="C3C4" to="B3A3" departSpeed="max" departPos="random"/>
    <trip id="1" depart="4.00" from="B3C3" to="B3C3" departSpeed="max" departPos="random"/>
    <trip id="2" depart="8.00" from="C4B4" to="C3C4" departSpeed="max" departPos="random"/>
    <trip id="3" depart="12.00" from="D3C3" to="B3B2" departSpeed="max" departPos="random"/>
    <trip id="4" depart="16.00" from="B4C4" to="B3A3" departSpeed="max" departPos="random"/>
    <trip id="5" depart="20.00" from="B3B4" to="C3B3" departSpeed="max" departPos="random"/>
    <trip id="6" depart="24.00" from="A3B3" to="B3C3" departSpeed="max" departPos="random"/>
    <trip id="7" depart="28.00" from="C3C4" to="C3B3" departSpeed="max" departPos="random"/>
    <trip id="8" depart="32.00" from="B3B4" to="C3C2" departSpeed="max" departPos="random"/>
    <trip id="9" depart="36.00" from="C4C3" to="B3A3" departSpeed="max" departPos="random"/>
    <trip id="10" depart="40.00" from="C4C3" to="C3D3" departSpeed="max" departPos="random"/>
    <trip id="11" depart="44.00" from="B4B3" to="B3B4" departSpeed="max" departPos="random"/>
    <trip id="12" depart="48.00" from="D4C4" to="B4B3" departSpeed="max" departPos="random"/>
    <trip id="13" depart="52.00" from="A4B4" to="B3B2" departSpeed="max" departPos="random"/>
    <trip id="14" depart="56.00" from="C5C4" to="C3C2" departSpeed="max" departPos="random"/>
    <trip id="15" depart="60.00" from="C4C3" to="C3D3" departSpeed="max" departPos="random"/>
    <trip id="16" depart="64.00" from="C2C3" to="C4D4" departSpeed="max" departPos="random"/>
    <trip id="17" depart="68.00" from="B4C4" to="C3B3" departSpeed="max" departPos="random"/>
    <trip id="18" depart="72.00" from="C5C4" to="C3C2" departSpeed="max" departPos="random"/>
    <trip id="19" depart="76.00" from="C5C4" to="C3C2" departSpeed="max" departPos="random"/>
    <trip id="20" depart="80.00" from="C4B4" to="B3A3" departSpeed="max" departPos="random"/>
    <trip id="21" depart="84.00" from="B3B4" to="B4A4" departSpeed="max" departPos="random"/>
    <trip id="22" depart="88.00" from="A4B4" to="B3C3" departSpeed="max" departPos="random"/>
    <trip id="23" depart="92.00" from="A4B4" to="B4A4" departSpeed="max" departPos="random"/>
    <trip id="24" depart="96.00" from="C3C4" to="B4B3" departSpeed="max" departPos="random"/>
    <trip id="25" depart="100.00" from="B4B3" to="B3C3" departSpeed="max" departPos="random"/>
    <trip id="26" depart="104.00" from="B3C3" to="C4C5" departSpeed="max" departPos="random"/>
    <trip id="27" depart="108.00" from="C3C4" to="C3C2" departSpeed="max" departPos="random"/>
    <trip id="28" depart="112.00" from="B2B3" to="C3D3" departSpeed="max" departPos="random"/>
    <trip id="29" depart="116.00" from="B2B3" to="B4B5" departSpeed="max" departPos="random"/>
    <trip id="30" depart="120.00" from="D4C4" to="C3C4" departSpeed="max" departPos="random"/>
    <trip id="31" depart="124.00" from="C2C3" to="C3C4" departSpeed="max" departPos="random"/>
    <trip id="32" depart="128.00" from="C5C4" to="C4B4" departSpeed="max" departPos="random"/>
    <trip id="33" depart="132.00" from="B3B4" to="B3A3" departSpeed="max" departPos="random"/>
    <trip id="34" depart="136.00" from="B4B3" to="B4A4" departSpeed="max" departPos="random"/>
    <trip id="35" depart="140.00" from="B3B4" to="C4D4" departSpeed="max" departPos="random"/>
    <trip id="36" depart="144.00" from="D3C3" to="B4B3" departSpeed="max" departPos="random"/>
    <trip id="37" depart="148.00" from="C3C4" to="B4B5" departSpeed="max" departPos="random"/>
    <trip id="38" depart="152.00" from="D3C3" to="B4C4" departSpeed="max" departPos="random"/>
    <trip id="39" depart="156.00" from="B3C3" to="B3C3" departSpeed="max" departPos="random"/>
    <trip id="40" depart="160.00" from="C2C3" to="B4A4" departSpeed="max" departPos="random"/>
    <trip id="41" depart="164.00" from="C3B3" to="C4C5" departSpeed="max" departPos="random"/>
    <trip id="42" depart="168.00" from="B4C4" to="B3C3" departSpeed="max" departPos="random"/>
    <trip id="43" depart="172.00" from="D4C4" to="C3B3" departSpeed="max" departPos="random"/>
    <trip id="44" depart="176.00" from="A4B4" to="B3A3" departSpeed="max" departPos="random"/>
    <trip id="45" depart="180.00" from="A4B4" to="C3C4" departSpeed="max" departPos="random"/>
    <trip id="46" depart="184.00" from="C4C3" to="B4B5" departSpeed="max" departPos="random"/>
    <trip id="47" depart="188.00" from="A4B4" to="B4B5" departSpeed="max" departPos="random"/>
    <trip id="48" depart="192.00" from="D4C4" to="C3B3" departSpeed="max" departPos="random"/>
    <trip id="49" depart="196.00" from="D4C4" to="C4C3" departSpeed="max" departPos="random"/>
    <trip id="50" depart="200.00" from="A3B3" to="C3D3" departSpeed="max" departPos="random"/>
    <trip id="51" depart="204.00" from="C3C4" to="C3B3" departSpeed="max" departPos="random"/>
    <trip id="52" depart="208.00" from="B3C3" to="C3C4" departSpeed="max" departPos="random"/>
    <trip id="53" depart="212.00" from="A4B4" to="B4B5" departSpeed="max" departPos="random"/>
    <trip id="54" depart="216.00" from="B5B4" to="C4D4" departSpeed="max" departPos="random"/>
    <trip id="55" depart="220.00" from="D3C3" to="B4A4" departSpeed="max" departPos="random"/>
    <trip id="56" depart="224.00" from="C2C3" to="B3B4" departSpeed="max" departPos="random"/>
    <trip id="57" depart="228.00" from="D3C3" to="C4C3" departSpeed="max" departPos="random"/>
    <trip id="58" depart="232.00" from="B3C3" to="C3C4" departSpeed="max" departPos="random"/>
    <trip id="59" depart="236.00" from="C3B3" to="B3B4" departSpeed="max" departPos="random"/>
    <trip id="60" depart="240.00" from="C4C3" to="C3B3" departSpeed="max" departPos="random"/>
    <trip id="61" depart="244.00" from="C4C3" to="C3B3" departSpeed="max" departPos="random"/>
    <trip id="62" depart="248.00" from="A3B3" to="B4B3" departSpeed="max" departPos="random"/>
    <trip id="63" depart="252.00" from="A3B3" to="C4C5" departSpeed="max" departPos="random"/>
    <trip id="64" depart="256.00" from="D3C3" to="C4C3" departSpeed="max" departPos="random"/>
    <trip id="65" depart="260.00" from="B3C3" to="B3A3" departSpeed="max" departPos="random"/>
    <trip id="66" depart="264.00" from="D3C3" to="C4D4" departSpeed="max" departPos="random"/>
    <trip id="67" depart="268.00" from="A4B4" to="B4C4" departSpeed="max" departPos="random"/>
    <trip id="68" depart="272.00" from="A4B4" to="C4B4" departSpeed="max" departPos="random"/>
    <trip id="69" depart="276.00" from="C4C3" to="B3B4" departSpeed="max" departPos="random"/>
    <trip id="70" depart="280.00" from="B5B4" to="C3B3" departSpeed="max" departPos="random"/>
    <trip id="71" depart="284.00" from="B3C3" to="C4C3" departSpeed="max" departPos="random"/>
    <trip id="72" depart="288.00" from="B4C4" to="B3C3" departSpeed="max" departPos="random"/>
    <trip id="73" depart="292.00" from="C2C3" to="C3D3" departSpeed="max" departPos="random"/>
    <trip id="74" depart="296.00" from="B3B4" to="B4A4" departSpeed="max" departPos="random"/>
    <trip id="75" depart="300.00" from="D4C4" to="C3C4" departSpeed="max" departPos="random"/>
    <trip id="76" depart="304.00" from="B5B4" to="C3B3" departSpeed="max" departPos="random"/>
    <trip id="77" depart="308.00" from="A4B4" to="B3C3" departSpeed="max" departPos="random"/>
    <trip id="78" depart="312.00" from="B4B3" to="C3C2" departSpeed="max" departPos="random"/>
    <trip id="79" depart="316.00" from="B3B4" to="B3C3" departSpeed="max" departPos="random"/>
    <trip id="80" depart="320.00" from="A4B4" to="C3C4" departSpeed="max" departPos="random"/>
    <trip id="81" depart="324.00" from="B3B4" to="C4C5" departSpeed="max" departPos="random"/>
    <trip id="82" depart="328.00" from="C5C4" to="B3B2" departSpeed="max" departPos="random"/>
    <trip id="83" depart="332.00" from="B3B4" to="C3C4" departSpeed="max" departPos="random"/>
    <trip id="84" depart="336.00" from="B3B4" to="B3B4" departSpeed="max" departPos="random"/>
    <trip id="85" depart="340.00" from="D3C3" to="C3C2" departSpeed="max" departPos="random"/>
    <trip id="86" depart="344.00" from="B5B4" to="C4B4" departSpeed="max" departPos="random"/>
    <trip id="87" depart="348.00" from="C4C3" to="B3C3" departSpeed="max" departPos="random"/>
    <trip id="88" depart="352.00" from="A4B4" to="B4B5" departSpeed="max" departPos="random"/>
    <trip id="89" depart="356.00" from="B4C4" to="B4C4" departSpeed="max" departPos="random"/>
    <trip id="90" depart="360.00" from="C4B4" to="C3C4" departSpeed="max" departPos="random"/>
    <trip id="91" depart="364.00" from="D4C4" to="B3B2" departSpeed="max" departPos="random"/>
    <trip id="92" depart="368.00" from="B4C4" to="B4B3" departSpeed="max" departPos="random"/>
    <trip id="93" depart="372.00" from="C5C4" to="B3C3" departSpeed="max" departPos="random"/>
    <trip id="94" depart="376.00" from="B3B4" to="B4C4" departSpeed="max" departPos="random"/>
    <trip id="95" depart="380.00" from="B4C4" to="B4A4" departSpeed="max" departPos="random"/>
    <trip id="96" depart="384.00" from="B3B4" to="C4C5" departSpeed="max" departPos="random"/>
    <trip id="97" depart="388.00" from="B5B4" to="C4C3" departSpeed="max" departPos="random"/>
    <trip id="98" depart="392.00" from="C2C3" to="B3A3" departSpeed="max" departPos="random"/>
    <trip id="99" depart="396.00" from="D4C4" to="C4C3" departSpeed="max" departPos="random"/>
    <trip id="100" depart="400.00" from="D4C4" to="C4C5" departSpeed="max" departPos="random"/>
    <trip id="101" depart="404.00" from="C5C4" to="B3B4" departSpeed="max" departPos="random"/>
    <trip id="102" depart="408.00" from="B5B4" to="B3C3" departSpeed="max" departPos="random"/>
    <trip id="103" depart="412.00" from="B4C4" to="B3A3" departSpeed="max" departPos="random"/>
    <trip id="104" depart="416.00" from="B4C4" to="C4D4" departSpeed="max" departPos="random"/>
    <trip id="105" depart="420.00" from="B3C3" to="C4B4" departSpeed="max" departPos="random"/>
    <trip id="106" depart="424.00" from="B5B4" to="B4B5" departSpeed="max" departPos="random"/>
    <trip id="107" depart="428.00" from="D4C4" to="C4D4" departSpeed="max" departPos="random"/>
    <trip id="108" depart="432.00" from="C2C3" to="C3D3" departSpeed="max" departPos="random"/>
    <trip id="109" depart="436.00" from="B2B3" to="B4A4" departSpeed="max" departPos="random"/>
    <trip id="110" depart="440.00" from="D4C4" to="C3C2" departSpeed="max" departPos="random"/>
    <trip id="111" depart="444.00" from="C2C3" to="C3D3" departSpeed="max" departPos="random"/>
    <trip id="112" depart="448.00" from="A3B3" to="C3C2" departSpeed="max" departPos="random"/>
    <trip id="113" depart="452.00" from="C2C3" to="C4C3" departSpeed="max" departPos="random"/>
    <trip id="114" depart="456.00" from="B2B3" to="C4D4" departSpeed="max" departPos="random"/>
    <trip id="115" depart="460.00" from="A4B4" to="B3B4" departSpeed="max" departPos="random"/>
    <trip id="116" depart="464.00" from="C3B3" to="C3C4" departSpeed="max" departPos="random"/>
    <trip id="117" depart="468.00" from="B3B4" to="B3B2" departSpeed="max" departPos="random"/>
    <trip id="118" depart="472.00" from="D3C3" to="B3C3" departSpeed="max" departPos="random"/>
    <trip id="119" depart="476.00" from="C3B3" to="C3C2" departSpeed="max" departPos="random"/>
    <trip id="120" depart="480.00" from="B4C4" to="C3C2" departSpeed="max" departPos="random"/>
    <trip id="121" depart="484.00" from="C2C3" to="C4C5" departSpeed="max" departPos="random"/>
    <trip id="122" depart="488.00" from="B3B4" to="C3D3" departSpeed="max" departPos="random"/>
    <trip id="123" depart="492.00" from="B3B4" to="B4B5" departSpeed="max" departPos="random"/>
    <trip id="124" depart="496.00" from="C3C4" to="B4A4" departSpeed="max" departPos="random"/>
    <trip id="125" depart="500.00" from="B4B3" to="C4B4" departSpeed="max" departPos="random"/>
    <trip id="126" depart="504.00" from="A4B4" to="B4C4" departSpeed="max" departPos="random"/>
    <trip id="127" depart="508.00" from="D4C4" to="C4D4" departSpeed="max" departPos="random"/>
    <trip id="128" depart="512.00" from="A4B4" to="B3C3" departSpeed="max" departPos="random"/>
    <trip id="129" depart="516.00" from="B3C3" to="C4C5" departSpeed="max" departPos="random"/>
    <trip id="130" depart="520.00" from="D3C3" to="C4C5" departSpeed="max" departPos="random"/>
    <trip id="131" depart="524.00" from="B4B3" to="B3B4" departSpeed="max" departPos="random"/>
    <trip id="132" depart="528.00" from="C5C4" to="C3D3" departSpeed="max" departPos="random"/>
    <trip id="133" depart="532.00" from="C3B3" to="C4D4" departSpeed="max" departPos="random"/>
    <trip id="134" depart="536.00" from="C3C4" to="B3A3" departSpeed="max" departPos="random"/>
    <trip id="135" depart="540.00" from="C5C4" to="B4A4" departSpeed="max" departPos="random"/>
    <trip id="136" depart="544.00" from="C3C4" to="C4D4" departSpeed="max" departPos="random"/>
    <trip id="137" depart="548.00" from="B2B3" to="B3B2" departSpeed="max" departPos="random"/>
    <trip id="138" depart="552.00" from="A4B4" to="C3B3" departSpeed="max" departPos="random"/>
    <trip id="139" depart="556.00" from="B3C3" to="C3C2" departSpeed="max" departPos="random"/>
    <trip id="140" depart="560.00" from="C4B4" to="B3C3" departSpeed="max" departPos="random"/>
    <trip id="141" depart="564.00" from="C3C4" to="B4A4" departSpeed="max" departPos="random"/>
    <trip id="142" depart="568.00" from="B5B4" to="C4C5" departSpeed="max" departPos="random"/>
    <trip id="143" depart="572.00" from="C5C4" to="B3B2" departSpeed="max" departPos="random"/>
    <trip id="144" depart="576.00" from="B4C4" to="B4A4" departSpeed="max" departPos="random"/>
    <trip id="145" depart="580.00" from="A3B3" to="C4B4" departSpeed="max" departPos="random"/>
    <trip id="146" depart="584.00" from="C3C4" to="B4A4" departSpeed="max" departPos="random"/>
    <trip id="147" depart="588.00" from="C4B4" to="C3B3" departSpeed="max" departPos="random"/>
    <trip id="148" depart="592.00" from="B4C4" to="B3A3" departSpeed="max" departPos="random"/>
    <trip id="149" depart="596.00" from="A4B4" to="C4C5" departSpeed="max" departPos="random"/>
    <trip id="150" depart="600.00" from="D3C3" to="C3B3" departSpeed="max" departPos="random"/>
    <trip id="151" depart="604.00" from="C5C4" to="C3C2" departSpeed="max" departPos="random"/>
    <trip id="152" depart="608.00" from="B2B3" to="B3B4" departSpeed="max" departPos="random"/>
    <trip id="153" depart="612.00" from="B3C3" to="C4C5" departSpeed="max" departPos="random"/>
    <trip id="154" depart="616.00" from="C4C3" to="C4C3" departSpeed="max" departPos="random"/>
    <trip id="155" depart="620.00" from="D3C3" to="B3C3" departSpeed="max" departPos="random"/>
    <trip id="156" depart="624.00" from="B3B4" to="B3B2" departSpeed="max" departPos="random"/>
    <trip id="157" depart="628.00" from="C4C3" to="C4C5" departSpeed="max" departPos="random"/>
    <trip id="158" depart="632.00" from="B4C4" to="C3C2" departSpeed="max" departPos="random"/>
    <trip id="159" depart="636.00" from="B2B3" to="C4C5" departSpeed="max" departPos="random"/>
    <trip id="160" depart="640.00" from="C5C4" to="C4D4" departSpeed="max" departPos="random"/>
    <trip id="161" depart="644.00" from="C4C3" to="C4C5" departSpeed="max" departPos="random"/>
    <trip id="162" depart="648.00" from="A3B3" to="C3D3" departSpeed="max" departPos="random"/>
    <trip id="163" depart="652.00" from="B4B3" to="C4C5" departSpeed="max" departPos="random"/>
    <trip id="164" depart="656.00" from="C4C3" to="C4C3" departSpeed="max" departPos="random"/>
    <trip id="165" depart="660.00" from="C4C3" to="B4A4" departSpeed="max" departPos="random"/>
    <trip id="166" depart="664.00" from="C4C3" to="B3B2" departSpeed="max" departPos="random"/>
    <trip id="167" depart="668.00" from="C5C4" to="C4C3" departSpeed="max" departPos="random"/>
    <trip id="168" depart="672.00" from="B3B4" to="C4C3" departSpeed="max" departPos="random"/>
    <trip id="169" depart="676.00" from="B5B4" to="B4A4" departSpeed="max" departPos="random"/>
    <trip id="170" depart="680.00" from="C4C3" to="B3C3" departSpeed="max" departPos="random"/>
    <trip id="171" depart="684.00" from="A3B3" to="B3C3" departSpeed="max" departPos="random"/>
    <trip id="172" depart="688.00" from="B4B3" to="C4C3" departSpeed="max" departPos="random"/>
    <trip id="173" depart="692.00" from="D4C4" to="B4A4" departSpeed="max" departPos="random"/>
    <trip id="174" depart="696.00" from="C3C4" to="B4B5" departSpeed="max" departPos="random"/>
    <trip id="175" depart="700.00" from="D4C4" to="C3B3" departSpeed="max" departPos="random"/>
    <trip id="176" depart="704.00" from="D4C4" to="B3B2" departSpeed="max" departPos="random"/>
    <trip id="177" depart="708.00" from="D4C4" to="B3B4" departSpeed="max" departPos="random"/>
    <trip id="178" depart="712.00" from="D4C4" to="B4A4" departSpeed="max" departPos="random"/>
    <trip id="179" depart="716.00" from="A4B4" to="B4B5" departSpeed="max" departPos="random"/>
    <trip id="180" depart="720.00" from="C4B4" to="B4B3" departSpeed="max" departPos="random"/>
    <trip id="181" depart="724.00" from="C3B3" to="C3B3" departSpeed="max" departPos="random"/>
    <trip id="182" depart="728.00" from="B4C4" to="C3C2" departSpeed="max" departPos="random"/>
    <trip id="183" depart="732.00" from="B3C3" to="C3D3" departSpeed="max" departPos="random"/>
    <trip id="184" depart="736.00" from="A3B3" to="C4C5" departSpeed="max" departPos="random"/>
    <trip id="185" depart="740.00" from="C2C3" to="C3D3" departSpeed="max" departPos="random"/>
    <trip id="186" depart="744.00" from="C4B4" to="C3C4" departSpeed="max" departPos="random"/>
    <trip id="187" depart="748.00" from="B4B3" to="B3B2" departSpeed="max" departPos="random"/>
    <trip id="188" depart="752.00" from="C3C4" to="B4B3" departSpeed="max" departPos="random"/>
    <trip id="189" depart="756.00" from="B4B3" to="C4C3" departSpeed="max" departPos="random"/>
    <trip id="190" depart="760.00" from="C4B4" to="B4A4" departSpeed="max" departPos="random"/>
    <trip id="191" depart="764.00" from="B3C3" to="B4B5" departSpeed="max" departPos="random"/>
    <trip id="192" depart="768.00" from="B4C4" to="B4A4" departSpeed="max" departPos="random"/>
    <trip id="193" depart="772.00" from="B2B3" to="B4B5" departSpeed="max" departPos="random"/>
    <trip id="194" depart="776.00" from="D4C4" to="C3C4" departSpeed="max" departPos="random"/>
    <trip id="195" depart="780.00" from="D3C3" to="C3C2" departSpeed="max" departPos="random"/>
    <trip id="196" depart="784.00" from="B3C3" to="C3B3" departSpeed="max" departPos="random"/>
    <trip id="197" depart="788.00" from="A3B3" to="B4A4" departSpeed="max" departPos="random"/>
    <trip id="198" depart="792.00" from="B4C4" to="C3C2" departSpeed="max" departPos="random"/>
    <trip id="199" depart="796.00" from="C3C4" to="B4C4" departSpeed="max" departPos="random"/>
    <trip id="200" depart="800.00" from="B5B4" to="B3C3" departSpeed="max" departPos="random"/>
    <trip id="201" depart="804.00" from="B5B4" to="C4C5" departSpeed="max" departPos="random"/>
    <trip id="202" depart="808.00" from="C4C3" to="B3B4" departSpeed="max" departPos="random"/>
    <trip id="203" depart="812.00" from="A4B4" to="C3B3" departSpeed="max" departPos="random"/>
    <trip id="204" depart="816.00" from="C3C4" to="B4B3" departSpeed="max" departPos="random"/>
    <trip id="205" depart="820.00" from="C5C4" to="C4B4" departSpeed="max" departPos="random"/>
    <trip id="206" depart="824.00" from="C3C4" to="B3C3" departSpeed="max" departPos="random"/>
    <trip id="207" depart="828.00" from="B3B4" to="B3A3" departSpeed="max" departPos="random"/>
    <trip id="208" depart="832.00" from="B3B4" to="B4C4" departSpeed="max" departPos="random"/>
    <trip id="209" depart="836.00" from="C5C4" to="B3B2" departSpeed="max" departPos="random"/>
    <trip id="210" depart="840.00" from="B4C4" to="C3C4" departSpeed="max" departPos="random"/>
    <trip id="211" depart="844.00" from="B3B4" to="C3D3" departSpeed="max" departPos="random"/>
    <trip id="212" depart="848.00" from="B5B4" to="B3C3" departSpeed="max" departPos="random"/>
    <trip id="213" depart="852.00" from="C3C4" to="B3A3" departSpeed="max" departPos="random"/>
    <trip id="214" depart="856.00" from="C4C3" to="C4B4" departSpeed="max" departPos="random"/>
    <trip id="215" depart="860.00" from="A4B4" to="B4B5" departSpeed="max" departPos="random"/>
    <trip id="216" depart="864.00" from="B2B3" to="C4D4" departSpeed="max" departPos="random"/>
    <trip id="217" depart="868.00" from="C2C3" to="B3A3" departSpeed="max" departPos="random"/>
    <trip id="218" depart="872.00" from="B3B4" to="C4C3" departSpeed="max" departPos="random"/>
    <trip id="219" depart="876.00" from="B5B4" to="C4B4" departSpeed="max" departPos="random"/>
    <trip id="220" depart="880.00" from="C3C4" to="C4D4" departSpeed="max" departPos="random"/>
    <trip id="221" depart="884.00" from="C3B3" to="C4D4" departSpeed="max" departPos="random"/>
    <trip id="222" depart="888.00" from="D3C3" to="C3C2" departSpeed="max" departPos="random"/>
    <trip id="223" depart="892.00" from="C4B4" to="C3B3" departSpeed="max" departPos="random"/>
    <trip id="224" depart="896.00" from="C5C4" to="C3B3" departSpeed="max" departPos="random"/>
    <trip id="225" depart="900.00" from="D3C3" to="C3D3" departSpeed="max" departPos="random"/>
    <trip id="226" depart="904.00" from="B5B4" to="B4A4" departSpeed="max" departPos="random"/>
    <trip id="227" depart="908.00" from="B3B4" to="C3C4" departSpeed="max" departPos="random"/>
    <trip id="228" depart="912.00" from="C4C3" to="C3B3" departSpeed="max" departPos="random"/>
    <trip id="229" depart="916.00" from="C3C4" to="B4A4" departSpeed="max" departPos="random"/>
    <trip id="230" depart="920.00" from="A4B4" to="B4A4" departSpeed="max" departPos="random"/>
    <trip id="231" depart="924.00" from="B3C3" to="B4B3" departSpeed="max" departPos="random"/>
    <trip id="232" depart="928.00" from="C2C3" to="B3B4" departSpeed="max" departPos="random"/>
    <trip id="233" depart="932.00" from="B3B4" to="C3D3" departSpeed="max" departPos="random"/>
    <trip id="234" depart="936.00" from="C4B4" to="B3B2" departSpeed="max" departPos="random"/>
    <trip id="235" depart="940.00" from="B4C4" to="C3B3" departSpeed="max" departPos="random"/>
    <trip id="236" depart="944.00" from="B4C4" to="B3C3" departSpeed="max" departPos="random"/>
    <trip id="237" depart="948.00" from="B4C4" to="C4C5" departSpeed="max" departPos="random"/>
    <trip id="238" depart="952.00" from="C3B3" to="C3D3" departSpeed="max" departPos="random"/>
    <trip id="239" depart="956.00" from="C5C4" to="C4B4" departSpeed="max" departPos="random"/>
    <trip id="240" depart="960.00" from="B4C4" to="B3A3" departSpeed="max" departPos="random"/>
    <trip id="241" depart="964.00" from="B4B3" to="C4B4" departSpeed="max" departPos="random"/>
    <trip id="242" depart="968.00" from="C5C4" to="C4D4" departSpeed="max" departPos="random"/>
    <trip id="243" depart="972.00" from="B4C4" to="C3D3" departSpeed="max" departPos="random"/>
    <trip id="244" depart="976.00" from="C2C3" to="C3C2" departSpeed="max" departPos="random"/>
    <trip id="245" depart="980.00" from="B3B4" to="B3C3" departSpeed="max" departPos="random"/>
    <trip id="246" depart="984.00" from="B4C4" to="B3A3" departSpeed="max" departPos="random"/>
    <trip id="247" depart="988.00" from="B4B3" to="C3C4" departSpeed="max" departPos="random"/>
    <trip id="248" depart="992.00" from="B4C4" to="B3B4" departSpeed="max" departPos="random"/>
    <trip id="249" depart="996.00" from="B5B4" to="B3B4" departSpeed="max" departPos="random"/>
    <trip id="250" depart="1000.00" from="C3B3" to="B3A3" departSpeed="max" departPos="random"/>
    <trip id="251" depart="1004.00" from="B4C4" to="C3C2" departSpeed="max" departPos="random"/>
    <trip id="252" depart="1008.00" from="A3B3" to="C3C4" departSpeed="max" departPos="random"/>
    <trip id="253" depart="1012.00" from="B2B3" to="B4C4" departSpeed="max" departPos="random"/>
    <trip id="254" depart="1016.00" from="A3B3" to="B4B5" departSpeed="max" departPos="random"/>
    <trip id="255" depart="1020.00" from="B3B4" to="B4B3" departSpeed="max" departPos="random"/>
    <trip id="256" depart="1024.00" from="C4C3" to="B4B5" departSpeed="max" departPos="random"/>
    <trip id="257" depart="1028.00" from="C4C3" to="C4C3" departSpeed="max" departPos="random"/>
    <trip id="258" depart="1032.00" from="B3C3" to="B3B2" departSpeed="max" departPos="random"/>
    <trip id="259" depart="1036.00" from="A3B3" to="C3B3" departSpeed="max" departPos="random"/>
    <trip id="260" depart="1040.00" from="D4C4" to="B4B3" departSpeed="max" departPos="random"/>
    <trip id="261" depart="1044.00" from="C3C4" to="C4B4" departSpeed="max" departPos="random"/>
    <trip id="262" depart="1048.00" from="C3C4" to="C4B4" departSpeed="max" departPos="random"/>
    <trip id="263" depart="1052.00" from="D4C4" to="B3C3" departSpeed="max" departPos="random"/>
    <trip id="264" depart="1056.00" from="A3B3" to="B3B4" departSpeed="max" departPos="random"/>
    <trip id="265" depart="1060.00" from="B2B3" to="C3C4" departSpeed="max" departPos="random"/>
    <trip id="266" depart="1064.00" from="C3B3" to="B3C3" departSpeed="max" departPos="random"/>
    <trip id="267" depart="1068.00" from="C4B4" to="C4B4" departSpeed="max" departPos="random"/>
    <trip id="268" depart="1072.00" from="B2B3" to="C3C2" departSpeed="max" departPos="random"/>
    <trip id="269" depart="1076.00" from="C4B4" to="B3B2" departSpeed="max" departPos="random"/>
    <trip id="270" depart="1080.00" from="C5C4" to="C4D4" departSpeed="max" departPos="random"/>
    <trip id="271" depart="1084.00" from="A4B4" to="B3A3" departSpeed="max" departPos="random"/>
    <trip id="272" depart="1088.00" from="B3C3" to="C3C4" departSpeed="max" departPos="random"/>
    <trip id="273" depart="1092.00" from="D4C4" to="B4B5" departSpeed="max" departPos="random"/>
    <trip id="274" depart="1096.00" from="C4B4" to="B3B2" departSpeed="max" departPos="random"/>
    <trip id="275" depart="1100.00" from="C4B4" to="C3C4" departSpeed="max" departPos="random"/>
    <trip id="276" depart="1104.00" from="A4B4" to="C4B4" departSpeed="max" departPos="random"/>
    <trip id="277" depart="1108.00" from="C5C4" to="C3C2" departSpeed="max" departPos="random"/>
    <trip id="278" depart="1112.00" from="A4B4" to="C4D4" departSpeed="max" departPos="random"/>
    <trip id="279" depart="1116.00" from="C4C3" to="B4B3" departSpeed="max" departPos="random"/>
    <trip id="280" depart="1120.00" from="B4C4" to="B4B3" departSpeed="max" departPos="random"/>
    <trip id="281" depart="1124.00" from="C2C3" to="B4B3" departSpeed="max" departPos="random"/>
    <trip id="282" depart="1128.00" from="C5C4" to="C4C3" departSpeed="max" departPos="random"/>
    <trip id="283" depart="1132.00" from="A4B4" to="C4D4" departSpeed="max" departPos="random"/>
    <trip id="284" depart="1136.00" from="C3C4" to="C4C3" departSpeed="max" departPos="random"/>
    <trip id="285" depart="1140.00" from="C4B4" to="B4B5" departSpeed="max" departPos="random"/>
    <trip id="286" depart="1144.00" from="C4B4" to="C4D4" departSpeed="max" departPos="random"/>
    <trip id="287" depart="1148.00" from="B3C3" to="C4B4" departSpeed="max" departPos="random"/>
    <trip id="288" depart="1152.00" from="C2C3" to="B4C4" departSpeed="max" departPos="random"/>
    <trip id="289" depart="1156.00" from="B4C4" to="C3D3" departSpeed="max" departPos="random"/>
    <trip id="290" depart="1160.00" from="B3C3" to="C4C3" departSpeed="max" departPos="random"/>
    <trip id="291" depart="1164.00" from="C5C4" to="B3B2" departSpeed="max" departPos="random"/>
    <trip id="292" depart="1168.00" from="D3C3" to="B3C3" departSpeed="max" departPos="random"/>
    <trip id="293" depart="1172.00" from="B5B4" to="C3C2" departSpeed="max" departPos="random"/>
    <trip id="294" depart="1176.00" from="B4C4" to="B3A3" departSpeed="max" departPos="random"/>
    <trip id="295" depart="1180.00" from="C5C4" to="B3B4" departSpeed="max" departPos="random"/>
    <trip id="296" depart="1184.00" from="B3B4" to="C4B4" departSpeed="max" departPos="random"/>
    <trip id="297" depart="1188.00" from="B4B3" to="C4C5" departSpeed="max" departPos="random"/>
    <trip id="298" depart="1192.00" from="C4B4" to="B4A4" departSpeed="max" departPos="random"/>
    <trip id="299" depart="1196.00" from="A3B3" to="C4D4" departSpeed="max" departPos="random"/>
    <trip id="300" depart="1200.00" from="A4B4" to="C3D3" departSpeed="max" departPos="random"/>
    <trip id="301" depart="1201.50" from="B5B4" to="C4B4" departSpeed="max" departPos="random"/>
    <trip id="302" depart="1203.00" from="C4B4" to="C3C4" departSpeed="max" departPos="random"/>
    <trip id="303" depart="1204.50" from="B5B4" to="C4B4" departSpeed="max" departPos="random"/>
    <trip id="304" depart="1206.00" from="A4B4" to="B3C3" departSpeed="max" departPos="random"/>
    <trip id="305" depart="1207.50" from="C4B4" to="B4A4" departSpeed="max" departPos="random"/>
    <trip id="306" depart="1209.00" from="C3B3" to="B4C4" departSpeed="max" departPos="random"/>